* File: ADDER.pex.netlist.pex
* Created: Sat Mar 28 17:12:31 2026
* Program "Calibre xRC"
* Version "v2023.4_17.10"
* Nominal Temperature: 25C
* Circuit Temperature: 25C
* 
.subckt PM_ADDER_XBLACK1_3.XI3.NET2 1 2 12 14 16 19 30 35 39 43 47
c84 47 0 0.00276607f
c85 43 0 0.00249355f
c86 39 0 0.00233512f
c87 35 0 0.00241266f
c88 30 0 0.00790964f
c89 19 0 0.00781031f
c90 14 0 0.00680798f
c91 12 0 0.00788804f
c92 2 0 0.0210193f
c93 1 0 0.0290356f
r94 47 50 0.125
r95 43 46 0.425
r96 41 46 0.26875
r97 40 47 0.0232317
r98 39 41 0.145415
r99 39 40 0.392857
r100 35 37 0.164667
r101 32 46 102.4
r102 30 37 0.0490623
r103 30 32 0.935385
r104 28 43 102.4
r105 19 50 102.4
r106 16 19 0.506667
r107 14 28 0.40375
r108 10 35 89.3538
r109 10 12 5.98
r110 6 12 1.98872
r111 3 12 1.98872
r112 2 3 28.86
r113 1 6 42.9
.ends

.subckt PM_ADDER_XBLACK1_3.XI0.NET1 1 2 9 10
c40 10 0 4.31695e-19
c41 9 0 0.00820184f
c42 2 0 0.0029181f
c43 1 0 0.00291607f
r44 9 11 0.214449
r45 9 10 2.20692
r46 5 10 0.217263
r47 2 11 0.208387
r48 1 5 0.19
.ends

.subckt PM_ADDER_XBLACK1_3.NET4 1 2 12 14 16 22 23 28 30
c62 30 0 0.00216393f
c63 28 0 0.00902657f
c64 23 0 0.00193923f
c65 22 0 0.00525989f
c66 16 0 0.00620876f
c67 14 0 0.00554455f
c68 12 0 0.00779449f
c69 2 0 0.0202305f
c70 1 0 0.0293982f
r71 29 30 0.115748
r72 28 32 0.116452
r73 28 29 0.386129
r74 24 30 0.0857076
r75 22 30 0.115748
r76 22 23 1.34462
r77 18 23 0.217263
r78 16 24 0.962667
r79 14 18 0.648235
r80 10 32 89.3538
r81 10 12 5.98
r82 6 12 1.98872
r83 3 12 1.98872
r84 2 3 28.86
r85 1 6 42.9
.ends

.subckt PM_ADDER_XBLACK1_15.XI3.NET2 1 2 14 16 19 30 35 39 43 47
c88 47 0 0.00303326f
c89 43 0 0.00494675f
c90 39 0 0.00248678f
c91 35 0 0.0022126f
c92 30 0 0.00787273f
c93 19 0 0.00784283f
c94 14 0 0.00735214f
c95 12 0 0.00828976f
c96 2 0 0.020935f
c97 1 0 0.0296346f
r98 47 50 0.125
r99 43 46 0.425
r100 41 46 0.26875
r101 40 47 0.0232317
r102 39 41 0.145415
r103 39 40 0.392857
r104 35 37 0.164667
r105 32 46 102.4
r106 30 37 0.0490623
r107 30 32 0.935385
r108 28 43 102.4
r109 19 50 102.4
r110 16 19 0.506667
r111 14 28 0.40375
r112 10 35 89.3538
r113 10 12 5.98
r114 6 12 1.98872
r115 3 12 1.98872
r116 2 3 28.86
r117 1 6 42.9
.ends

.subckt PM_ADDER_XBLACK1_15.XI0.NET1 1 2 9 10
c35 10 0 4.33524e-19
c36 9 0 0.00761722f
c37 2 0 0.00367918f
c38 1 0 0.00347683f
r39 9 11 0.214449
r40 9 10 2.20692
r41 5 10 0.217263
r42 2 11 0.208387
r43 1 5 0.19
.ends

.subckt PM_ADDER_XBLACK1_15.NET4 1 2 12 14 16 22 23 28 30
c63 30 0 0.00199382f
c64 28 0 0.00903956f
c65 23 0 0.00197928f
c66 22 0 0.00525989f
c67 16 0 0.00623499f
c68 14 0 0.00684047f
c69 12 0 0.00779276f
c70 2 0 0.0200128f
c71 1 0 0.0293982f
r72 29 30 0.115748
r73 28 32 0.116452
r74 28 29 0.386129
r75 24 30 0.0857076
r76 22 30 0.115748
r77 22 23 1.34462
r78 18 23 0.217263
r79 16 24 0.962667
r80 14 18 0.648235
r81 10 32 89.3538
r82 10 12 5.98
r83 6 12 1.98872
r84 3 12 1.98872
r85 2 3 28.86
r86 1 6 42.9
.ends

.subckt PM_ADDER_XBLACK3_15.XI3.NET2 1 2 12 14 16 19 30 35 39 43 47
c84 47 0 0.00177623f
c85 43 0 0.00181863f
c86 39 0 0.00238589f
c87 35 0 0.00203871f
c88 30 0 0.00896006f
c89 19 0 0.00662803f
c90 14 0 0.00728246f
c91 12 0 0.00787764f
c92 2 0 0.0189657f
c93 1 0 0.0272924f
r94 47 50 0.125
r95 43 46 0.425
r96 41 46 0.26875
r97 40 47 0.0232317
r98 39 41 0.145415
r99 39 40 0.392857
r100 35 37 0.164667
r101 32 46 102.4
r102 30 37 0.0490623
r103 30 32 0.935385
r104 28 43 102.4
r105 19 50 102.4
r106 16 19 0.506667
r107 14 28 0.40375
r108 10 35 89.3538
r109 10 12 5.98
r110 6 12 1.98872
r111 3 12 1.98872
r112 2 3 28.86
r113 1 6 42.9
.ends

.subckt PM_ADDER_XBLACK3_15.XI0.NET1 1 2 9 10
c36 10 0 4.322e-19
c37 9 0 0.00744749f
c38 2 0 0.00241769f
c39 1 0 0.00273159f
r40 9 11 0.214449
r41 9 10 2.20692
r42 5 10 0.217263
r43 2 11 0.208387
r44 1 5 0.19
.ends

.subckt PM_ADDER_XBLACK3_15.NET4 1 2 12 14 16 22 23 28 30
c62 30 0 0.00186513f
c63 28 0 0.00817958f
c64 23 0 0.00186293f
c65 22 0 0.00536858f
c66 16 0 0.00520122f
c67 14 0 0.00639488f
c68 12 0 0.00822904f
c69 2 0 0.0218157f
c70 1 0 0.0315831f
r71 29 30 0.115748
r72 28 32 0.116452
r73 28 29 0.386129
r74 24 30 0.0857076
r75 22 30 0.115748
r76 22 23 1.34462
r77 18 23 0.217263
r78 16 24 0.962667
r79 14 18 0.648235
r80 10 32 89.3538
r81 10 12 5.98
r82 6 12 1.98872
r83 3 12 1.98872
r84 2 3 28.86
r85 1 6 42.9
.ends

.subckt PM_ADDER_XBLACK1_5.XI3.NET2 1 2 12 14 16 19 30 35 39 43 47
c88 47 0 0.00300766f
c89 43 0 0.00431181f
c90 39 0 0.00233512f
c91 35 0 0.00221362f
c92 30 0 0.00787273f
c93 19 0 0.00778081f
c94 14 0 0.00743492f
c95 12 0 0.00788418f
c96 2 0 0.020935f
c97 1 0 0.0288455f
r98 47 50 0.125
r99 43 46 0.425
r100 41 46 0.26875
r101 40 47 0.0232317
r102 39 41 0.145415
r103 39 40 0.392857
r104 35 37 0.164667
r105 32 46 102.4
r106 30 37 0.0490623
r107 30 32 0.935385
r108 28 43 102.4
r109 19 50 102.4
r110 16 19 0.506667
r111 14 28 0.40375
r112 10 35 89.3538
r113 10 12 5.98
r114 6 12 1.98872
r115 3 12 1.98872
r116 2 3 28.86
r117 1 6 42.9
.ends

.subckt PM_ADDER_XBLACK1_5.XI0.NET1 1 2 9 10
c36 10 0 4.31695e-19
c37 9 0 0.0075281f
c38 2 0 0.00319497f
c39 1 0 0.00342489f
r40 9 11 0.214449
r41 9 10 2.20692
r42 5 10 0.217263
r43 2 11 0.208387
r44 1 5 0.19
.ends

.subckt PM_ADDER_XBLACK1_5.NET4 1 2 12 14 16 22 23 28 30
c63 30 0 0.00199382f
c64 28 0 0.00904104f
c65 23 0 0.00186448f
c66 22 0 0.00525989f
c67 16 0 0.00620492f
c68 14 0 0.00682427f
c69 12 0 0.00779276f
c70 2 0 0.0200128f
c71 1 0 0.0293982f
r72 29 30 0.115748
r73 28 32 0.116452
r74 28 29 0.386129
r75 24 30 0.0857076
r76 22 30 0.115748
r77 22 23 1.34462
r78 18 23 0.217263
r79 16 24 0.962667
r80 14 18 0.648235
r81 10 32 89.3538
r82 10 12 5.98
r83 6 12 1.98872
r84 3 12 1.98872
r85 2 3 28.86
r86 1 6 42.9
.ends

.subckt PM_ADDER_XBLACK2_6.XI3.NET2 1 2 14 16 19 30 35 39 43 47
c86 47 0 0.00320902f
c87 43 0 0.00283806f
c88 39 0 0.00233512f
c89 35 0 0.00252341f
c90 30 0 0.00830308f
c91 19 0 0.00763135f
c92 14 0 0.0075414f
c93 12 0 0.00828976f
c94 2 0 0.020935f
c95 1 0 0.0290659f
r96 47 50 0.125
r97 43 46 0.425
r98 41 46 0.26875
r99 40 47 0.0232317
r100 39 41 0.145415
r101 39 40 0.392857
r102 35 37 0.164667
r103 32 46 102.4
r104 30 37 0.0490623
r105 30 32 0.935385
r106 28 43 102.4
r107 19 50 102.4
r108 16 19 0.506667
r109 14 28 0.40375
r110 10 35 89.3538
r111 10 12 5.98
r112 6 12 1.98872
r113 3 12 1.98872
r114 2 3 28.86
r115 1 6 42.9
.ends

.subckt PM_ADDER_XBLACK2_6.XI0.NET1 1 2 9 10
c35 10 0 4.31695e-19
c36 9 0 0.00745238f
c37 2 0 0.00279844f
c38 1 0 0.00364373f
r39 9 11 0.214449
r40 9 10 2.20692
r41 5 10 0.217263
r42 2 11 0.208387
r43 1 5 0.19
.ends

.subckt PM_ADDER_XBLACK2_6.NET4 1 2 12 14 16 22 23 28 30
c69 30 0 0.00210035f
c70 28 0 0.00827862f
c71 23 0 0.00185859f
c72 22 0 0.00525989f
c73 16 0 0.00684187f
c74 14 0 0.00666072f
c75 12 0 0.00779276f
c76 2 0 0.0199994f
c77 1 0 0.0290227f
r78 29 30 0.115748
r79 28 32 0.116452
r80 28 29 0.386129
r81 24 30 0.0857076
r82 22 30 0.115748
r83 22 23 1.34462
r84 18 23 0.217263
r85 16 24 0.962667
r86 14 18 0.648235
r87 10 32 89.3538
r88 10 12 5.98
r89 6 12 1.98872
r90 3 12 1.98872
r91 2 3 28.86
r92 1 6 42.9
.ends

.subckt PM_ADDER_XBLACK1_7.XI3.NET2 1 2 14 16 19 30 35 39 43 47
c87 47 0 0.00300766f
c88 43 0 0.0045186f
c89 39 0 0.00248642f
c90 35 0 0.00221294f
c91 30 0 0.00787273f
c92 19 0 0.00776439f
c93 14 0 0.00762659f
c94 12 0 0.00828976f
c95 2 0 0.020935f
c96 1 0 0.0290267f
r97 47 50 0.125
r98 43 46 0.425
r99 41 46 0.26875
r100 40 47 0.0232317
r101 39 41 0.145415
r102 39 40 0.392857
r103 35 37 0.164667
r104 32 46 102.4
r105 30 37 0.0490623
r106 30 32 0.935385
r107 28 43 102.4
r108 19 50 102.4
r109 16 19 0.506667
r110 14 28 0.40375
r111 10 35 89.3538
r112 10 12 5.98
r113 6 12 1.98872
r114 3 12 1.98872
r115 2 3 28.86
r116 1 6 42.9
.ends

.subckt PM_ADDER_XBLACK1_7.XI0.NET1 1 2 9 10
c36 10 0 4.31695e-19
c37 9 0 0.00761345f
c38 2 0 0.00299698f
c39 1 0 0.00326161f
r40 9 11 0.214449
r41 9 10 2.20692
r42 5 10 0.217263
r43 2 11 0.208387
r44 1 5 0.19
.ends

.subckt PM_ADDER_XBLACK1_7.NET4 1 2 12 14 16 22 23 28 30
c66 30 0 0.00199382f
c67 28 0 0.00904104f
c68 23 0 0.0019831f
c69 22 0 0.00525989f
c70 16 0 0.00618782f
c71 14 0 0.00711919f
c72 12 0 0.00779276f
c73 2 0 0.0193253f
c74 1 0 0.0293982f
r75 29 30 0.115748
r76 28 32 0.116452
r77 28 29 0.386129
r78 24 30 0.0857076
r79 22 30 0.115748
r80 22 23 1.34462
r81 18 23 0.217263
r82 16 24 0.962667
r83 14 18 0.648235
r84 10 32 89.3538
r85 10 12 5.98
r86 6 12 1.98872
r87 3 12 1.98872
r88 2 3 28.86
r89 1 6 42.9
.ends

.subckt PM_ADDER_XBLACK2_7.XI3.NET2 1 2 12 14 16 19 30 35 39 43 47
c80 47 0 0.00320902f
c81 43 0 0.00185777f
c82 39 0 0.00233512f
c83 35 0 0.00238699f
c84 30 0 0.00830308f
c85 19 0 0.00757041f
c86 14 0 0.00696389f
c87 12 0 0.00785717f
c88 2 0 0.0206319f
c89 1 0 0.0290325f
r90 47 50 0.125
r91 43 46 0.425
r92 41 46 0.26875
r93 40 47 0.0232317
r94 39 41 0.145415
r95 39 40 0.392857
r96 35 37 0.164667
r97 32 46 102.4
r98 30 37 0.0490623
r99 30 32 0.935385
r100 28 43 102.4
r101 19 50 102.4
r102 16 19 0.506667
r103 14 28 0.40375
r104 10 35 89.3538
r105 10 12 5.98
r106 6 12 1.98872
r107 3 12 1.98872
r108 2 3 28.86
r109 1 6 42.9
.ends

.subckt PM_ADDER_XBLACK2_7.XI0.NET1 1 2 9 10
c33 10 0 4.31695e-19
c34 9 0 0.0076137f
c35 2 0 0.00279844f
c36 1 0 0.00364373f
r37 9 11 0.214449
r38 9 10 2.20692
r39 5 10 0.217263
r40 2 11 0.208387
r41 1 5 0.19
.ends

.subckt PM_ADDER_XBLACK2_7.NET4 1 2 12 14 16 22 23 28 30
c69 30 0 0.00203371f
c70 28 0 0.00827399f
c71 23 0 0.00185859f
c72 22 0 0.00460288f
c73 16 0 0.00689132f
c74 14 0 0.00479052f
c75 12 0 0.00779449f
c76 2 0 0.02045f
c77 1 0 0.0289905f
r78 29 30 0.115748
r79 28 32 0.116452
r80 28 29 0.386129
r81 24 30 0.0857076
r82 22 30 0.115748
r83 22 23 1.34462
r84 18 23 0.217263
r85 16 24 0.962667
r86 14 18 0.648235
r87 10 32 89.3538
r88 10 12 5.98
r89 6 12 1.98872
r90 3 12 1.98872
r91 2 3 28.86
r92 1 6 42.9
.ends

.subckt PM_ADDER_XBLACK1_9.XI3.NET2 1 2 12 14 16 19 30 35 39 43 47
c92 47 0 0.00300766f
c93 43 0 0.00490741f
c94 39 0 0.00233512f
c95 35 0 0.00221565f
c96 30 0 0.00787273f
c97 19 0 0.0077957f
c98 14 0 0.00735289f
c99 12 0 0.00785521f
c100 2 0 0.0204809f
c101 1 0 0.0288444f
r102 47 50 0.125
r103 43 46 0.425
r104 41 46 0.26875
r105 40 47 0.0232317
r106 39 41 0.145415
r107 39 40 0.392857
r108 35 37 0.164667
r109 32 46 102.4
r110 30 37 0.0490623
r111 30 32 0.935385
r112 28 43 102.4
r113 19 50 102.4
r114 16 19 0.506667
r115 14 28 0.40375
r116 10 35 89.3538
r117 10 12 5.98
r118 6 12 1.98872
r119 3 12 1.98872
r120 2 3 28.86
r121 1 6 42.9
.ends

.subckt PM_ADDER_XBLACK1_9.XI0.NET1 1 2 9 10
c36 10 0 4.31695e-19
c37 9 0 0.0075281f
c38 2 0 0.00319449f
c39 1 0 0.00342344f
r40 9 11 0.214449
r41 9 10 2.20692
r42 5 10 0.217263
r43 2 11 0.208387
r44 1 5 0.19
.ends

.subckt PM_ADDER_XBLACK1_9.NET4 1 2 12 14 16 22 23 28 30
c64 30 0 0.00199382f
c65 28 0 0.00904104f
c66 23 0 0.00186448f
c67 22 0 0.00525989f
c68 16 0 0.0062031f
c69 14 0 0.00682427f
c70 12 0 0.00779276f
c71 2 0 0.0200128f
c72 1 0 0.0293982f
r73 29 30 0.115748
r74 28 32 0.116452
r75 28 29 0.386129
r76 24 30 0.0857076
r77 22 30 0.115748
r78 22 23 1.34462
r79 18 23 0.217263
r80 16 24 0.962667
r81 14 18 0.648235
r82 10 32 89.3538
r83 10 12 5.98
r84 6 12 1.98872
r85 3 12 1.98872
r86 2 3 28.86
r87 1 6 42.9
.ends

.subckt PM_ADDER_XBLACK2_10.XI3.NET2 1 2 12 14 16 19 30 35 39 43 47
c89 47 0 0.00320902f
c90 43 0 0.00287446f
c91 39 0 0.00233512f
c92 35 0 0.00238699f
c93 30 0 0.00830308f
c94 19 0 0.00763135f
c95 14 0 0.00744616f
c96 12 0 0.00785521f
c97 2 0 0.0202338f
c98 1 0 0.0290325f
r99 47 50 0.125
r100 43 46 0.425
r101 41 46 0.26875
r102 40 47 0.0232317
r103 39 41 0.145415
r104 39 40 0.392857
r105 35 37 0.164667
r106 32 46 102.4
r107 30 37 0.0490623
r108 30 32 0.935385
r109 28 43 102.4
r110 19 50 102.4
r111 16 19 0.506667
r112 14 28 0.40375
r113 10 35 89.3538
r114 10 12 5.98
r115 6 12 1.98872
r116 3 12 1.98872
r117 2 3 28.86
r118 1 6 42.9
.ends

.subckt PM_ADDER_XBLACK2_10.XI0.NET1 1 2 9 10
c35 10 0 4.31695e-19
c36 9 0 0.00745238f
c37 2 0 0.00279844f
c38 1 0 0.00364373f
r39 9 11 0.214449
r40 9 10 2.20692
r41 5 10 0.217263
r42 2 11 0.208387
r43 1 5 0.19
.ends

.subckt PM_ADDER_XBLACK2_10.NET4 1 2 12 14 16 22 23 28 30
c69 30 0 0.00210035f
c70 28 0 0.00827862f
c71 23 0 0.00185859f
c72 22 0 0.00525989f
c73 16 0 0.00684187f
c74 14 0 0.00666072f
c75 12 0 0.00779276f
c76 2 0 0.0199994f
c77 1 0 0.0290227f
r78 29 30 0.115748
r79 28 32 0.116452
r80 28 29 0.386129
r81 24 30 0.0857076
r82 22 30 0.115748
r83 22 23 1.34462
r84 18 23 0.217263
r85 16 24 0.962667
r86 14 18 0.648235
r87 10 32 89.3538
r88 10 12 5.98
r89 6 12 1.98872
r90 3 12 1.98872
r91 2 3 28.86
r92 1 6 42.9
.ends

.subckt PM_ADDER_XBLACK1_11.XI3.NET2 1 2 12 14 16 19 30 35 39 43 47
c90 47 0 0.00300766f
c91 43 0 0.0045186f
c92 39 0 0.00233512f
c93 35 0 0.00221294f
c94 30 0 0.00787273f
c95 19 0 0.00776439f
c96 14 0 0.00762659f
c97 12 0 0.00788418f
c98 2 0 0.020935f
c99 1 0 0.0288458f
r100 47 50 0.125
r101 43 46 0.425
r102 41 46 0.26875
r103 40 47 0.0232317
r104 39 41 0.145415
r105 39 40 0.392857
r106 35 37 0.164667
r107 32 46 102.4
r108 30 37 0.0490623
r109 30 32 0.935385
r110 28 43 102.4
r111 19 50 102.4
r112 16 19 0.506667
r113 14 28 0.40375
r114 10 35 89.3538
r115 10 12 5.98
r116 6 12 1.98872
r117 3 12 1.98872
r118 2 3 28.86
r119 1 6 42.9
.ends

.subckt PM_ADDER_XBLACK1_11.XI0.NET1 1 2 9 10
c36 10 0 4.31695e-19
c37 9 0 0.00760964f
c38 2 0 0.00299698f
c39 1 0 0.00326128f
r40 9 11 0.214449
r41 9 10 2.20692
r42 5 10 0.217263
r43 2 11 0.208387
r44 1 5 0.19
.ends

.subckt PM_ADDER_XBLACK1_11.NET4 1 2 12 14 16 22 23 28 30
c66 30 0 0.00199382f
c67 28 0 0.00904104f
c68 23 0 0.00197781f
c69 22 0 0.00525989f
c70 16 0 0.00618684f
c71 14 0 0.00711919f
c72 12 0 0.00779276f
c73 2 0 0.0193253f
c74 1 0 0.0293982f
r75 29 30 0.115748
r76 28 32 0.116452
r77 28 29 0.386129
r78 24 30 0.0857076
r79 22 30 0.115748
r80 22 23 1.34462
r81 18 23 0.217263
r82 16 24 0.962667
r83 14 18 0.648235
r84 10 32 89.3538
r85 10 12 5.98
r86 6 12 1.98872
r87 3 12 1.98872
r88 2 3 28.86
r89 1 6 42.9
.ends

.subckt PM_ADDER_XBLACK2_11.XI3.NET2 1 2 12 14 16 19 30 35 39 43 47
c82 47 0 0.00320902f
c83 43 0 0.00185777f
c84 39 0 0.00233512f
c85 35 0 0.00238699f
c86 30 0 0.00830308f
c87 19 0 0.00757041f
c88 14 0 0.00696389f
c89 12 0 0.00785717f
c90 2 0 0.0206319f
c91 1 0 0.0290325f
r92 47 50 0.125
r93 43 46 0.425
r94 41 46 0.26875
r95 40 47 0.0232317
r96 39 41 0.145415
r97 39 40 0.392857
r98 35 37 0.164667
r99 32 46 102.4
r100 30 37 0.0490623
r101 30 32 0.935385
r102 28 43 102.4
r103 19 50 102.4
r104 16 19 0.506667
r105 14 28 0.40375
r106 10 35 89.3538
r107 10 12 5.98
r108 6 12 1.98872
r109 3 12 1.98872
r110 2 3 28.86
r111 1 6 42.9
.ends

.subckt PM_ADDER_XBLACK2_11.XI0.NET1 1 2 9 10
c33 10 0 4.31695e-19
c34 9 0 0.00824782f
c35 2 0 0.00279844f
c36 1 0 0.00364373f
r37 9 11 0.214449
r38 9 10 2.20692
r39 5 10 0.217263
r40 2 11 0.208387
r41 1 5 0.19
.ends

.subckt PM_ADDER_XBLACK2_11.NET4 1 2 12 14 16 22 23 28 30
c69 30 0 0.0024879f
c70 28 0 0.00908165f
c71 23 0 0.00170662f
c72 22 0 0.00434752f
c73 16 0 0.00619593f
c74 14 0 0.00479052f
c75 12 0 0.00779449f
c76 2 0 0.0204258f
c77 1 0 0.0293847f
r78 29 30 0.115748
r79 28 32 0.116452
r80 28 29 0.386129
r81 24 30 0.0857076
r82 22 30 0.115748
r83 22 23 1.34462
r84 18 23 0.217263
r85 16 24 0.962667
r86 14 18 0.648235
r87 10 32 89.3538
r88 10 12 5.98
r89 6 12 1.98872
r90 3 12 1.98872
r91 2 3 28.86
r92 1 6 42.9
.ends

.subckt PM_ADDER_XBLACK3_12.XI3.NET2 1 2 12 14 16 19 30 35 39 43 47
c80 47 0 0.00184453f
c81 43 0 0.00457899f
c82 39 0 0.00238674f
c83 35 0 0.00237864f
c84 30 0 0.00896006f
c85 19 0 0.00690924f
c86 14 0 0.00755037f
c87 12 0 0.00788547f
c88 2 0 0.0216618f
c89 1 0 0.0291426f
r90 47 50 0.125
r91 43 46 0.425
r92 41 46 0.26875
r93 40 47 0.0232317
r94 39 41 0.145415
r95 39 40 0.392857
r96 35 37 0.164667
r97 32 46 102.4
r98 30 37 0.0490623
r99 30 32 0.935385
r100 28 43 102.4
r101 19 50 102.4
r102 16 19 0.506667
r103 14 28 0.40375
r104 10 35 89.3538
r105 10 12 5.98
r106 6 12 1.98872
r107 3 12 1.98872
r108 2 3 28.86
r109 1 6 42.9
.ends

.subckt PM_ADDER_XBLACK3_12.XI0.NET1 1 2 9 10
c36 10 0 4.31707e-19
c37 9 0 0.00745449f
c38 2 0 0.00241794f
c39 1 0 0.00272662f
r40 9 11 0.214449
r41 9 10 2.20692
r42 5 10 0.217263
r43 2 11 0.208387
r44 1 5 0.19
.ends

.subckt PM_ADDER_XBLACK3_12.NET4 1 2 12 14 16 22 23 28 30
c59 30 0 0.00196761f
c60 28 0 0.00698488f
c61 23 0 0.00189298f
c62 22 0 0.00484563f
c63 16 0 0.00535194f
c64 14 0 0.00743449f
c65 12 0 0.00821489f
c66 2 0 0.0218157f
c67 1 0 0.0315831f
r68 29 30 0.115748
r69 28 32 0.116452
r70 28 29 0.386129
r71 24 30 0.0857076
r72 22 30 0.115748
r73 22 23 1.34462
r74 18 23 0.217263
r75 16 24 0.962667
r76 14 18 0.648235
r77 10 32 89.3538
r78 10 12 5.98
r79 6 12 1.98872
r80 3 12 1.98872
r81 2 3 28.86
r82 1 6 42.9
.ends

.subckt PM_ADDER_XBLACK3_13.XI3.NET2 1 2 12 14 16 19 30 35 39 43 47
c86 47 0 0.00202095f
c87 43 0 0.00462699f
c88 39 0 0.0023484f
c89 35 0 0.0023819f
c90 30 0 0.00896006f
c91 19 0 0.00657683f
c92 14 0 0.00750009f
c93 12 0 0.00788547f
c94 2 0 0.0216618f
c95 1 0 0.0291258f
r96 47 50 0.125
r97 43 46 0.425
r98 41 46 0.26875
r99 40 47 0.0232317
r100 39 41 0.145415
r101 39 40 0.392857
r102 35 37 0.164667
r103 32 46 102.4
r104 30 37 0.0490623
r105 30 32 0.935385
r106 28 43 102.4
r107 19 50 102.4
r108 16 19 0.506667
r109 14 28 0.40375
r110 10 35 89.3538
r111 10 12 5.98
r112 6 12 1.98872
r113 3 12 1.98872
r114 2 3 28.86
r115 1 6 42.9
.ends

.subckt PM_ADDER_XBLACK3_13.XI0.NET1 1 2 9 10
c36 10 0 4.3172e-19
c37 9 0 0.00745439f
c38 2 0 0.00241769f
c39 1 0 0.00272675f
r40 9 11 0.214449
r41 9 10 2.20692
r42 5 10 0.217263
r43 2 11 0.208387
r44 1 5 0.19
.ends

.subckt PM_ADDER_XBLACK3_13.NET4 1 2 12 14 16 22 23 28 30
c59 30 0 0.00196761f
c60 28 0 0.0069845f
c61 23 0 0.00189298f
c62 22 0 0.00484563f
c63 16 0 0.00535217f
c64 14 0 0.00744884f
c65 12 0 0.00821381f
c66 2 0 0.0218157f
c67 1 0 0.0315831f
r68 29 30 0.115748
r69 28 32 0.116452
r70 28 29 0.386129
r71 24 30 0.0857076
r72 22 30 0.115748
r73 22 23 1.34462
r74 18 23 0.217263
r75 16 24 0.962667
r76 14 18 0.648235
r77 10 32 89.3538
r78 10 12 5.98
r79 6 12 1.98872
r80 3 12 1.98872
r81 2 3 28.86
r82 1 6 42.9
.ends

.subckt PM_ADDER_XBLACK1_13.XI3.NET2 1 2 12 14 16 19 30 35 39 43 47
c88 47 0 0.00279096f
c89 43 0 0.00368704f
c90 39 0 0.00248678f
c91 35 0 0.00240885f
c92 30 0 0.00790275f
c93 19 0 0.00748679f
c94 14 0 0.00716242f
c95 12 0 0.0080257f
c96 2 0 0.0208979f
c97 1 0 0.0298088f
r98 47 50 0.125
r99 43 46 0.425
r100 41 46 0.26875
r101 40 47 0.0232317
r102 39 41 0.145415
r103 39 40 0.392857
r104 35 37 0.164667
r105 32 46 102.4
r106 30 37 0.0490623
r107 30 32 0.935385
r108 28 43 102.4
r109 19 50 102.4
r110 16 19 0.506667
r111 14 28 0.40375
r112 10 35 89.3538
r113 10 12 5.98
r114 6 12 1.98872
r115 3 12 1.98872
r116 2 3 28.86
r117 1 6 42.9
.ends

.subckt PM_ADDER_XBLACK1_13.XI0.NET1 1 2 9 10
c39 10 0 4.33524e-19
c40 9 0 0.00822928f
c41 2 0 0.00316807f
c42 1 0 0.00279828f
r43 9 11 0.214449
r44 9 10 2.20692
r45 5 10 0.217263
r46 2 11 0.208387
r47 1 5 0.19
.ends

.subckt PM_ADDER_XBLACK1_13.NET4 1 2 12 14 16 22 23 28 30
c68 30 0 0.00199382f
c69 28 0 0.00902453f
c70 23 0 0.0020265f
c71 22 0 0.00525989f
c72 16 0 0.00622119f
c73 14 0 0.00590671f
c74 12 0 0.00779449f
c75 2 0 0.0192307f
c76 1 0 0.0293982f
r77 29 30 0.115748
r78 28 32 0.116452
r79 28 29 0.386129
r80 24 30 0.0857076
r81 22 30 0.115748
r82 22 23 1.34462
r83 18 23 0.217263
r84 16 24 0.962667
r85 14 18 0.648235
r86 10 32 89.3538
r87 10 12 5.98
r88 6 12 1.98872
r89 3 12 1.98872
r90 2 3 28.86
r91 1 6 42.9
.ends

.subckt PM_ADDER_XBLACK2_14.XI3.NET2 1 2 12 14 16 19 30 35 39 43 47
c88 47 0 0.00320902f
c89 43 0 0.00290521f
c90 39 0 0.00233512f
c91 35 0 0.00238699f
c92 30 0 0.00830308f
c93 19 0 0.00763135f
c94 14 0 0.0074017f
c95 12 0 0.00785521f
c96 2 0 0.0202338f
c97 1 0 0.0290325f
r98 47 50 0.125
r99 43 46 0.425
r100 41 46 0.26875
r101 40 47 0.0232317
r102 39 41 0.145415
r103 39 40 0.392857
r104 35 37 0.164667
r105 32 46 102.4
r106 30 37 0.0490623
r107 30 32 0.935385
r108 28 43 102.4
r109 19 50 102.4
r110 16 19 0.506667
r111 14 28 0.40375
r112 10 35 89.3538
r113 10 12 5.98
r114 6 12 1.98872
r115 3 12 1.98872
r116 2 3 28.86
r117 1 6 42.9
.ends

.subckt PM_ADDER_XBLACK2_14.XI0.NET1 1 2 9 10
c35 10 0 4.31695e-19
c36 9 0 0.00745238f
c37 2 0 0.00279844f
c38 1 0 0.00364373f
r39 9 11 0.214449
r40 9 10 2.20692
r41 5 10 0.217263
r42 2 11 0.208387
r43 1 5 0.19
.ends

.subckt PM_ADDER_XBLACK2_14.NET4 1 2 12 14 16 22 23 28 30
c69 30 0 0.00210035f
c70 28 0 0.00827861f
c71 23 0 0.00185859f
c72 22 0 0.00525989f
c73 16 0 0.00684187f
c74 14 0 0.00667749f
c75 12 0 0.00779276f
c76 2 0 0.0199994f
c77 1 0 0.0290227f
r78 29 30 0.115748
r79 28 32 0.116452
r80 28 29 0.386129
r81 24 30 0.0857076
r82 22 30 0.115748
r83 22 23 1.34462
r84 18 23 0.217263
r85 16 24 0.962667
r86 14 18 0.648235
r87 10 32 89.3538
r88 10 12 5.98
r89 6 12 1.98872
r90 3 12 1.98872
r91 2 3 28.86
r92 1 6 42.9
.ends

.subckt PM_ADDER_XBLACK3_14.XI3.NET2 1 2 12 14 16 19 30 35 39 43 47
c86 47 0 0.00202095f
c87 43 0 0.00462699f
c88 39 0 0.0023484f
c89 35 0 0.0023819f
c90 30 0 0.00896006f
c91 19 0 0.00657683f
c92 14 0 0.00750009f
c93 12 0 0.00788547f
c94 2 0 0.0216618f
c95 1 0 0.0291258f
r96 47 50 0.125
r97 43 46 0.425
r98 41 46 0.26875
r99 40 47 0.0232317
r100 39 41 0.145415
r101 39 40 0.392857
r102 35 37 0.164667
r103 32 46 102.4
r104 30 37 0.0490623
r105 30 32 0.935385
r106 28 43 102.4
r107 19 50 102.4
r108 16 19 0.506667
r109 14 28 0.40375
r110 10 35 89.3538
r111 10 12 5.98
r112 6 12 1.98872
r113 3 12 1.98872
r114 2 3 28.86
r115 1 6 42.9
.ends

.subckt PM_ADDER_XBLACK3_14.XI0.NET1 1 2 9 10
c36 10 0 4.3172e-19
c37 9 0 0.00745439f
c38 2 0 0.00241769f
c39 1 0 0.00272675f
r40 9 11 0.214449
r41 9 10 2.20692
r42 5 10 0.217263
r43 2 11 0.208387
r44 1 5 0.19
.ends

.subckt PM_ADDER_XBLACK3_14.NET4 1 2 12 14 16 22 23 28 30
c59 30 0 0.00196761f
c60 28 0 0.00698412f
c61 23 0 0.00189298f
c62 22 0 0.00484563f
c63 16 0 0.00535309f
c64 14 0 0.00745103f
c65 12 0 0.00821272f
c66 2 0 0.0218157f
c67 1 0 0.0315831f
r68 29 30 0.115748
r69 28 32 0.116452
r70 28 29 0.386129
r71 24 30 0.0857076
r72 22 30 0.115748
r73 22 23 1.34462
r74 18 23 0.217263
r75 16 24 0.962667
r76 14 18 0.648235
r77 10 32 89.3538
r78 10 12 5.98
r79 6 12 1.98872
r80 3 12 1.98872
r81 2 3 28.86
r82 1 6 42.9
.ends

.subckt PM_ADDER_XBLACK2_15.XI3.NET2 1 2 14 16 19 30 35 39 43 47
c83 47 0 0.00204655f
c84 43 0 0.00410139f
c85 39 0 0.00250012f
c86 35 0 0.0023819f
c87 30 0 0.00896006f
c88 19 0 0.00657683f
c89 14 0 0.00743117f
c90 12 0 0.00832002f
c91 2 0 0.0218502f
c92 1 0 0.0307392f
r93 47 50 0.125
r94 43 46 0.425
r95 41 46 0.26875
r96 40 47 0.0232317
r97 39 41 0.145415
r98 39 40 0.392857
r99 35 37 0.164667
r100 32 46 102.4
r101 30 37 0.0490623
r102 30 32 0.935385
r103 28 43 102.4
r104 19 50 102.4
r105 16 19 0.506667
r106 14 28 0.40375
r107 10 35 89.3538
r108 10 12 5.98
r109 6 12 1.98872
r110 3 12 1.98872
r111 2 3 28.86
r112 1 6 42.9
.ends

.subckt PM_ADDER_XBLACK2_15.XI0.NET1 1 2 9 10
c35 10 0 4.33524e-19
c36 9 0 0.00744768f
c37 2 0 0.00241769f
c38 1 0 0.00275405f
r39 9 11 0.214449
r40 9 10 2.20692
r41 5 10 0.217263
r42 2 11 0.208387
r43 1 5 0.19
.ends

.subckt PM_ADDER_XBLACK2_15.NET4 1 2 12 14 16 22 23 28 30
c69 30 0 0.00138593f
c70 28 0 0.00551928f
c71 23 0 0.00186284f
c72 22 0 0.00484563f
c73 16 0 0.00507381f
c74 14 0 0.00643978f
c75 12 0 0.0077716f
c76 2 0 0.01836f
c77 1 0 0.0274113f
r78 29 30 0.115748
r79 28 32 0.116452
r80 28 29 0.386129
r81 24 30 0.0857076
r82 22 30 0.115748
r83 22 23 1.34462
r84 18 23 0.217263
r85 16 24 0.962667
r86 14 18 0.648235
r87 10 32 89.3538
r88 10 12 5.98
r89 6 12 1.98872
r90 3 12 1.98872
r91 2 3 28.86
r92 1 6 42.9
.ends

.subckt PM_ADDER_XI104.NET8 1 2 3 4 5 6 7 8 9 10 11 12 13 18 20 25 27 32 34 39
+ 41 46 48 57 58 59 60 61 62 63 65 77 79
c99 79 0 2.53537e-19
c100 77 0 0.00633553f
c101 65 0 0.00778821f
c102 63 0 0.00648859f
c103 62 0 0.0019791f
c104 61 0 6.72026e-19
c105 60 0 6.72026e-19
c106 59 0 6.72026e-19
c107 58 0 6.72026e-19
c108 57 0 0.00537682f
c109 48 0 0.0164788f
c110 46 0 0.00386728f
c111 41 0 0.0116536f
c112 39 0 0.00473812f
c113 34 0 0.0117398f
c114 32 0 0.00386728f
c115 27 0 0.0114912f
c116 25 0 0.00426439f
c117 20 0 0.0114912f
c118 18 0 0.00386728f
c119 13 0 0.0124188f
c120 6 0 0.0249613f
c121 5 0 0.0173368f
c122 4 0 0.0173368f
c123 3 0 0.0170804f
c124 2 0 0.0170804f
c125 1 0 0.0183428f
r126 75 79 0.0116998
r127 75 77 0.637857
r128 71 79 0.238313
r129 67 79 0.238313
r130 65 71 0.592353
r131 63 67 0.592353
r132 56 57 2.47819
r133 54 77 89.3538
r134 54 56 6.09375
r135 50 62 4.56151
r136 48 62 4.56151
r137 47 61 2.6
r138 46 62 0.043368
r139 46 47 14.56
r140 43 61 5.85
r141 41 61 5.85
r142 40 60 2.6
r143 39 61 2.6
r144 39 40 16.64
r145 36 60 5.85
r146 34 60 5.85
r147 33 59 2.6
r148 32 60 2.6
r149 32 33 14.56
r150 29 59 5.85
r151 27 59 5.85
r152 26 58 2.6
r153 25 59 2.6
r154 25 26 15.6
r155 22 58 5.85
r156 20 58 5.85
r157 18 58 2.6
r158 18 57 14.56
r159 15 56 2.22942
r160 13 56 2.22942
r161 12 48 21.84
r162 11 41 21.84
r163 10 34 21.84
r164 9 27 21.84
r165 8 20 21.84
r166 7 13 21.84
r167 6 50 37.44
r168 5 43 37.44
r169 4 36 37.44
r170 3 29 37.44
r171 2 22 37.44
r172 1 15 36.66
.ends

.subckt PM_ADDER_XI105.NET8 1 2 3 4 5 6 7 8 9 10 11 12 13 18 20 25 27 32 34 39
+ 41 46 48 57 58 59 60 61 62 63 65 77 79
c106 79 0 1.64259e-19
c107 77 0 0.00435172f
c108 65 0 0.00486328f
c109 63 0 0.00311224f
c110 62 0 0.0019791f
c111 61 0 6.72026e-19
c112 60 0 6.72026e-19
c113 59 0 6.72026e-19
c114 58 0 6.72026e-19
c115 57 0 0.00537605f
c116 48 0 0.0165916f
c117 46 0 0.00386728f
c118 41 0 0.0116536f
c119 39 0 0.00473812f
c120 34 0 0.0117398f
c121 32 0 0.00386728f
c122 27 0 0.0114912f
c123 25 0 0.00426439f
c124 20 0 0.0114912f
c125 18 0 0.00386728f
c126 13 0 0.0124188f
c127 6 0 0.0249777f
c128 5 0 0.0173368f
c129 4 0 0.0173368f
c130 3 0 0.0170804f
c131 2 0 0.0170804f
c132 1 0 0.0183428f
r133 75 79 0.0116998
r134 75 77 0.637857
r135 71 79 0.238313
r136 67 79 0.238313
r137 65 71 0.592353
r138 63 67 0.592353
r139 56 57 2.47819
r140 54 77 89.3538
r141 54 56 6.09375
r142 50 62 4.56151
r143 48 62 4.56151
r144 47 61 2.6
r145 46 62 0.043368
r146 46 47 14.56
r147 43 61 5.85
r148 41 61 5.85
r149 40 60 2.6
r150 39 61 2.6
r151 39 40 16.64
r152 36 60 5.85
r153 34 60 5.85
r154 33 59 2.6
r155 32 60 2.6
r156 32 33 14.56
r157 29 59 5.85
r158 27 59 5.85
r159 26 58 2.6
r160 25 59 2.6
r161 25 26 15.6
r162 22 58 5.85
r163 20 58 5.85
r164 18 58 2.6
r165 18 57 14.56
r166 15 56 2.22942
r167 13 56 2.22942
r168 12 48 21.84
r169 11 41 21.84
r170 10 34 21.84
r171 9 27 21.84
r172 8 20 21.84
r173 7 13 21.84
r174 6 50 37.44
r175 5 43 37.44
r176 4 36 37.44
r177 3 29 37.44
r178 2 22 37.44
r179 1 15 36.66
.ends

.subckt PM_ADDER_XI106.NET8 1 2 3 4 5 6 7 8 9 10 11 12 13 18 20 25 27 32 34 39
+ 41 46 48 57 58 59 60 61 62 63 65 77 79
c112 79 0 1.39706e-19
c113 77 0 0.00517063f
c114 65 0 0.0046967f
c115 63 0 0.00519239f
c116 62 0 0.0019791f
c117 61 0 6.72026e-19
c118 60 0 6.72026e-19
c119 59 0 6.72026e-19
c120 58 0 6.72026e-19
c121 57 0 0.00536917f
c122 48 0 0.0164286f
c123 46 0 0.00386728f
c124 41 0 0.0116536f
c125 39 0 0.00473812f
c126 34 0 0.0117398f
c127 32 0 0.00386728f
c128 27 0 0.0114912f
c129 25 0 0.00426439f
c130 20 0 0.0114912f
c131 18 0 0.00386541f
c132 13 0 0.0123695f
c133 6 0 0.0249549f
c134 5 0 0.0173368f
c135 4 0 0.0173368f
c136 3 0 0.0170804f
c137 2 0 0.0157259f
c138 1 0 0.0173706f
r139 75 79 0.0116998
r140 75 77 0.637857
r141 71 79 0.238313
r142 67 79 0.238313
r143 65 71 0.592353
r144 63 67 0.592353
r145 56 57 2.47819
r146 54 77 89.3538
r147 54 56 6.09375
r148 50 62 4.56151
r149 48 62 4.56151
r150 47 61 2.6
r151 46 62 0.043368
r152 46 47 14.56
r153 43 61 5.85
r154 41 61 5.85
r155 40 60 2.6
r156 39 61 2.6
r157 39 40 16.64
r158 36 60 5.85
r159 34 60 5.85
r160 33 59 2.6
r161 32 60 2.6
r162 32 33 14.56
r163 29 59 5.85
r164 27 59 5.85
r165 26 58 2.6
r166 25 59 2.6
r167 25 26 15.6
r168 22 58 5.85
r169 20 58 5.85
r170 18 58 2.6
r171 18 57 14.56
r172 15 56 2.22942
r173 13 56 2.22942
r174 12 48 21.84
r175 11 41 21.84
r176 10 34 21.84
r177 9 27 21.84
r178 8 20 21.84
r179 7 13 21.84
r180 6 50 37.44
r181 5 43 37.44
r182 4 36 37.44
r183 3 29 37.44
r184 2 22 37.44
r185 1 15 36.66
.ends

.subckt PM_ADDER_XI91.NET8 1 2 3 4 5 6 7 8 9 10 11 12 13 18 20 25 27 32 34 39 41
+ 46 48 57 58 59 60 61 62 63 65 77 79
c105 79 0 2.73151e-19
c106 77 0 0.00404831f
c107 65 0 0.00596819f
c108 63 0 0.00551865f
c109 62 0 0.0019791f
c110 61 0 6.72026e-19
c111 60 0 6.72026e-19
c112 59 0 6.72026e-19
c113 58 0 6.72026e-19
c114 57 0 0.00535779f
c115 48 0 0.0164788f
c116 46 0 0.00386728f
c117 41 0 0.0116536f
c118 39 0 0.00473812f
c119 34 0 0.0117398f
c120 32 0 0.00386728f
c121 27 0 0.0116334f
c122 25 0 0.00426439f
c123 20 0 0.0107841f
c124 18 0 0.00386386f
c125 13 0 0.0110624f
c126 6 0 0.0249613f
c127 5 0 0.0173368f
c128 4 0 0.0173368f
c129 3 0 0.0172173f
c130 2 0 0.0160978f
c131 1 0 0.0163677f
r132 75 79 0.0116998
r133 75 77 0.637857
r134 71 79 0.238313
r135 67 79 0.238313
r136 65 71 0.592353
r137 63 67 0.592353
r138 56 57 2.47819
r139 54 77 89.3538
r140 54 56 6.09375
r141 50 62 4.56151
r142 48 62 4.56151
r143 47 61 2.6
r144 46 62 0.043368
r145 46 47 14.56
r146 43 61 5.85
r147 41 61 5.85
r148 40 60 2.6
r149 39 61 2.6
r150 39 40 16.64
r151 36 60 5.85
r152 34 60 5.85
r153 33 59 2.6
r154 32 60 2.6
r155 32 33 14.56
r156 29 59 5.85
r157 27 59 5.85
r158 26 58 2.6
r159 25 59 2.6
r160 25 26 15.6
r161 22 58 5.85
r162 20 58 5.85
r163 18 58 2.6
r164 18 57 14.56
r165 15 56 2.22942
r166 13 56 2.22942
r167 12 48 21.84
r168 11 41 21.84
r169 10 34 21.84
r170 9 27 21.84
r171 8 20 21.84
r172 7 13 21.84
r173 6 50 37.44
r174 5 43 37.44
r175 4 36 37.44
r176 3 29 37.44
r177 2 22 37.44
r178 1 15 36.66
.ends

.subckt PM_ADDER_XI90.NET8 1 2 3 4 5 6 7 8 9 10 11 12 13 18 20 25 27 32 34 39 41
+ 46 48 57 58 59 60 61 62 63 65 77 79
c98 79 0 2.73151e-19
c99 77 0 0.00633553f
c100 65 0 0.00793331f
c101 63 0 0.00675307f
c102 62 0 0.0019791f
c103 61 0 6.72026e-19
c104 60 0 6.72026e-19
c105 59 0 6.72026e-19
c106 58 0 6.72026e-19
c107 57 0 0.00537682f
c108 48 0 0.0164286f
c109 46 0 0.00386728f
c110 41 0 0.0116536f
c111 39 0 0.00473812f
c112 34 0 0.0117398f
c113 32 0 0.00386728f
c114 27 0 0.0114912f
c115 25 0 0.00426439f