* File: ADDER.pex.netlist
* Created: Sat Mar 28 17:12:31 2026
* Program "Calibre xRC"
* Version "v2023.4_17.10"
* 
.include "ADDER.pex.netlist.pex"
.subckt ADDER  B<0> A<0> CIN S<0> B<1> A<1> S<1> B<2> A<2> S<2> B<3> A<3> S<3>
+ B<4> A<4> S<4> GND B<5> A<5> S<5> VDD B<6> A<6> S<6> B<7> A<7> S<7> B<8> A<8>
+ S<8> B<9> A<9> S<9> B<10> A<10> S<10> B<11> A<11> S<11> B<12> A<12> S<12>
+ B<13> A<13> S<13> B<14> A<14> S<14> B<15> A<15> S<15> COUT
* 
* COUT	COUT
* S<15>	S<15>
* A<15>	A<15>
* B<15>	B<15>
* S<14>	S<14>
* A<14>	A<14>
* B<14>	B<14>
* S<13>	S<13>
* A<13>	A<13>
* B<13>	B<13>
* S<12>	S<12>
* A<12>	A<12>
* B<12>	B<12>
* S<11>	S<11>
* A<11>	A<11>
* B<11>	B<11>
* S<10>	S<10>
* A<10>	A<10>
* B<10>	B<10>
* S<9>	S<9>
* A<9>	A<9>
* B<9>	B<9>
* S<8>	S<8>
* A<8>	A<8>
* B<8>	B<8>
* S<7>	S<7>
* A<7>	A<7>
* B<7>	B<7>
* S<6>	S<6>
* A<6>	A<6>
* B<6>	B<6>
* VDD	VDD
* S<5>	S<5>
* A<5>	A<5>
* B<5>	B<5>
* GND	GND
* S<4>	S<4>
* A<4>	A<4>
* B<4>	B<4>
* S<3>	S<3>
* A<3>	A<3>
* B<3>	B<3>
* S<2>	S<2>
* A<2>	A<2>
* B<2>	B<2>
* S<1>	S<1>
* A<1>	A<1>
* B<1>	B<1>
* S<0>	S<0>
* CIN	CIN
* A<0>	A<0>
* B<0>	B<0>
mXBlack1_3.XI3.MM3 XBLACK1_3.XI3.NET1 N_P2_2_XBlack1_3.XI3.MM3_g
+ N_GND_XBlack1_3.XI3.MM3_s N_GND_XBlack1_3.XI3.MM3_b NMOS_VTG L=5e-08 W=9e-08
+ AD=1.305e-14 AS=9.45e-15 PD=4.7e-07 PS=3.9e-07
mXBlack1_3.XI3.MM2 N_XBLACK1_3.XI3.NET2_XBlack1_3.XI3.MM2_d
+ N_P3_3_XBlack1_3.XI3.MM2_g XBLACK1_3.XI3.NET1 N_GND_XBlack1_3.XI3.MM3_b
+ NMOS_VTG L=5e-08 W=9e-08 AD=9.45e-15 AS=1.305e-14 PD=3.9e-07 PS=4.7e-07
mXBlack1_3.XI3.MM5 N_P3_2_XBlack1_3.XI3.MM5_d
+ N_XBLACK1_3.XI3.NET2_XBlack1_3.XI3.MM5_g N_GND_XBlack1_3.XI3.MM5_s
+ N_GND_XBlack1_3.XI3.MM3_b NMOS_VTG L=5e-08 W=9e-08 AD=9.45e-15 AS=9.45e-15
+ PD=3.9e-07 PS=3.9e-07
mXBlack1_3.XI0.MM4 XBLACK1_3.XI0.NET13 N_P3_3_XBlack1_3.XI0.MM4_g
+ N_GND_XBlack1_3.XI0.MM4_s N_GND_XBlack1_3.XI3.MM3_b NMOS_VTG L=5e-08 W=9e-08
+ AD=1.7775e-14 AS=1.1475e-14 PD=5.75e-07 PS=4.35e-07
mXBlack1_3.XI0.MM3 N_XBLACK1_3.NET4_XBlack1_3.XI0.MM3_d
+ N_G2_2_XBlack1_3.XI0.MM3_g XBLACK1_3.XI0.NET13 N_GND_XBlack1_3.XI3.MM3_b
+ NMOS_VTG L=5e-08 W=9e-08 AD=2.3175e-14 AS=1.7775e-14 PD=6.95e-07 PS=5.75e-07
mXBlack1_3.XI0.MM5 N_GND_XBlack1_3.XI0.MM5_d N_G3_3_XBlack1_3.XI0.MM5_g
+ N_XBLACK1_3.NET4_XBlack1_3.XI0.MM3_d N_GND_XBlack1_3.XI3.MM3_b NMOS_VTG
+ L=5e-08 W=9e-08 AD=1.575e-14 AS=2.3175e-14 PD=5.3e-07 PS=6.95e-07
mXBlack1_3.XI4.MM1 N_G3_2_XBlack1_3.XI4.MM1_d
+ N_XBLACK1_3.NET4_XBlack1_3.XI4.MM1_g N_GND_XBlack1_3.XI4.MM1_s
+ N_GND_XBlack1_3.XI3.MM3_b NMOS_VTG L=5e-08 W=9e-08 AD=9.45e-15 AS=9.45e-15
+ PD=3.9e-07 PS=3.9e-07
mXBlack1_3.XI3.MM0 N_XBLACK1_3.XI3.NET2_XBlack1_3.XI3.MM0_d
+ N_P2_2_XBlack1_3.XI3.MM0_g N_VDD_XBlack1_3.XI3.MM0_s N_VDD_XBlack1_3.XI3.MM0_b
+ PMOS_VTG L=5e-08 W=1.8e-07 AD=2.61e-14 AS=1.89e-14 PD=6.5e-07 PS=5.7e-07
mXBlack1_3.XI3.MM1 N_XBLACK1_3.XI3.NET2_XBlack1_3.XI3.MM0_d
+ N_P3_3_XBlack1_3.XI3.MM1_g N_VDD_XBlack1_3.XI3.MM1_s N_VDD_XBlack1_3.XI3.MM0_b
+ PMOS_VTG L=5e-08 W=1.8e-07 AD=2.61e-14 AS=1.89e-14 PD=6.5e-07 PS=5.7e-07
mXBlack1_3.XI3.MM4 N_P3_2_XBlack1_3.XI3.MM4_d
+ N_XBLACK1_3.XI3.NET2_XBlack1_3.XI3.MM4_g N_VDD_XBlack1_3.XI3.MM4_s
+ N_VDD_XBlack1_3.XI3.MM0_b PMOS_VTG L=5e-08 W=1.8e-07 AD=1.89e-14 AS=1.89e-14
+ PD=5.7e-07 PS=5.7e-07
mXBlack1_3.XI0.MM1 N_VDD_XBlack1_3.XI0.MM1_d N_P3_3_XBlack1_3.XI0.MM1_g
+ N_XBLACK1_3.XI0.NET1_XBlack1_3.XI0.MM1_s N_VDD_XBlack1_3.XI3.MM0_b PMOS_VTG
+ L=5e-08 W=1.8e-07 AD=3.555e-14 AS=2.25e-14 PD=7.55e-07 PS=6.1e-07
mXBlack1_3.XI0.MM0 N_XBLACK1_3.XI0.NET1_XBlack1_3.XI0.MM0_d
+ N_G2_2_XBlack1_3.XI0.MM0_g N_VDD_XBlack1_3.XI0.MM1_d N_VDD_XBlack1_3.XI3.MM0_b
+ PMOS_VTG L=5e-08 W=1.8e-07 AD=4.635e-14 AS=3.555e-14 PD=8.75e-07 PS=7.55e-07
mXBlack1_3.XI0.MM2 N_XBLACK1_3.XI0.NET1_XBlack1_3.XI0.MM0_d
+ N_G3_3_XBlack1_3.XI0.MM2_g N_XBLACK1_3.NET4_XBlack1_3.XI0.MM2_s
+ N_VDD_XBlack1_3.XI3.MM0_b PMOS_VTG L=5e-08 W=1.8e-07 AD=4.635e-14 AS=3.06e-14
+ PD=8.75e-07 PS=7e-07
mXBlack1_3.XI4.MM0 N_G3_2_XBlack1_3.XI4.MM0_d
+ N_XBLACK1_3.NET4_XBlack1_3.XI4.MM0_g N_VDD_XBlack1_3.XI4.MM0_s
+ N_VDD_XBlack1_3.XI3.MM0_b PMOS_VTG L=5e-08 W=1.8e-07 AD=1.89e-14 AS=1.89e-14
+ PD=5.7e-07 PS=5.7e-07
mXBlack1_15.XI3.MM3 XBLACK1_15.XI3.NET1 N_P14_14_XBlack1_15.XI3.MM3_g
+ N_GND_XBlack1_15.XI3.MM3_s N_GND_XBlack1_3.XI3.MM3_b NMOS_VTG L=5e-08 W=9e-08
+ AD=1.305e-14 AS=9.45e-15 PD=4.7e-07 PS=3.9e-07
mXBlack1_15.XI3.MM2 N_XBLACK1_15.XI3.NET2_XBlack1_15.XI3.MM2_d
+ N_P15_15_XBlack1_15.XI3.MM2_g XBLACK1_15.XI3.NET1 N_GND_XBlack1_3.XI3.MM3_b
+ NMOS_VTG L=5e-08 W=9e-08 AD=9.45e-15 AS=1.305e-14 PD=3.9e-07 PS=4.7e-07
mXBlack1_15.XI3.MM5 N_P15_14_XBlack1_15.XI3.MM5_d
+ N_XBLACK1_15.XI3.NET2_XBlack1_15.XI3.MM5_g N_GND_XBlack1_15.XI3.MM5_s
+ N_GND_XBlack1_3.XI3.MM3_b NMOS_VTG L=5e-08 W=9e-08 AD=9.45e-15 AS=9.45e-15
+ PD=3.9e-07 PS=3.9e-07
mXBlack1_15.XI0.MM4 XBLACK1_15.XI0.NET13 N_P15_15_XBlack1_15.XI0.MM4_g
+ N_GND_XBlack1_15.XI0.MM4_s N_GND_XBlack1_3.XI3.MM3_b NMOS_VTG L=5e-08 W=9e-08
+ AD=1.7775e-14 AS=1.1475e-14 PD=5.75e-07 PS=4.35e-07
mXBlack1_15.XI0.MM3 N_XBLACK1_15.NET4_XBlack1_15.XI0.MM3_d
+ N_G14_14_XBlack1_15.XI0.MM3_g XBLACK1_15.XI0.NET13 N_GND_XBlack1_3.XI3.MM3_b
+ NMOS_VTG L=5e-08 W=9e-08 AD=2.3175e-14 AS=1.7775e-14 PD=6.95e-07 PS=5.75e-07
mXBlack1_15.XI0.MM5 N_GND_XBlack1_15.XI0.MM5_d N_G15_15_XBlack1_15.XI0.MM5_g
+ N_XBLACK1_15.NET4_XBlack1_15.XI0.MM3_d N_GND_XBlack1_3.XI3.MM3_b NMOS_VTG
+ L=5e-08 W=9e-08 AD=1.575e-14 AS=2.3175e-14 PD=5.3e-07 PS=6.95e-07
mXBlack1_15.XI4.MM1 N_G15_14_XBlack1_15.XI4.MM1_d
+ N_XBLACK1_15.NET4_XBlack1_15.XI4.MM1_g N_GND_XBlack1_15.XI4.MM1_s
+ N_GND_XBlack1_3.XI3.MM3_b NMOS_VTG L=5e-08 W=9e-08 AD=9.45e-15 AS=9.45e-15
+ PD=3.9e-07 PS=3.9e-07
mXBlack1_15.XI3.MM0 N_XBLACK1_15.XI3.NET2_XBlack1_15.XI3.MM0_d
+ N_P14_14_XBlack1_15.XI3.MM0_g N_VDD_XBlack1_15.XI3.MM0_s
+ N_VDD_XBlack1_3.XI3.MM0_b PMOS_VTG L=5e-08 W=1.8e-07 AD=2.61e-14 AS=1.89e-14
+ PD=6.5e-07 PS=5.7e-07
mXBlack1_15.XI3.MM1 N_XBLACK1_15.XI3.NET2_XBlack1_15.XI3.MM0_d
+ N_P15_15_XBlack1_15.XI3.MM1_g N_VDD_XBlack1_15.XI3.MM1_s
+ N_VDD_XBlack1_3.XI3.MM0_b PMOS_VTG L=5e-08 W=1.8e-07 AD=2.61e-14 AS=1.89e-14
+ PD=6.5e-07 PS=5.7e-07
mXBlack1_15.XI3.MM4 N_P15_14_XBlack1_15.XI3.MM4_d
+ N_XBLACK1_15.XI3.NET2_XBlack1_15.XI3.MM4_g N_VDD_XBlack1_15.XI3.MM4_s
+ N_VDD_XBlack1_3.XI3.MM0_b PMOS_VTG L=5e-08 W=1.8e-07 AD=1.89e-14 AS=1.89e-14
+ PD=5.7e-07 PS=5.7e-07
mXBlack1_15.XI0.MM1 N_VDD_XBlack1_15.XI0.MM1_d N_P15_15_XBlack1_15.XI0.MM1_g
+ N_XBLACK1_15.XI0.NET1_XBlack1_15.XI0.MM1_s N_VDD_XBlack1_3.XI3.MM0_b PMOS_VTG
+ L=5e-08 W=1.8e-07 AD=3.555e-14 AS=2.25e-14 PD=7.55e-07 PS=6.1e-07
mXBlack1_15.XI0.MM0 N_XBLACK1_15.XI0.NET1_XBlack1_15.XI0.MM0_d
+ N_G14_14_XBlack1_15.XI0.MM0_g N_VDD_XBlack1_15.XI0.MM1_d
+ N_VDD_XBlack1_3.XI3.MM0_b PMOS_VTG L=5e-08 W=1.8e-07 AD=4.635e-14 AS=3.555e-14
+ PD=8.75e-07 PS=7.55e-07
mXBlack1_15.XI0.MM2 N_XBLACK1_15.XI0.NET1_XBlack1_15.XI0.MM0_d
+ N_G15_15_XBlack1_15.XI0.MM2_g N_XBLACK1_15.NET4_XBlack1_15.XI0.MM2_s
+ N_VDD_XBlack1_3.XI3.MM0_b PMOS_VTG L=5e-08 W=1.8e-07 AD=4.635e-14 AS=3.06e-14
+ PD=8.75e-07 PS=7e-07
mXBlack1_15.XI4.MM0 N_G15_14_XBlack1_15.XI4.MM0_d
+ N_XBLACK1_15.NET4_XBlack1_15.XI4.MM0_g N_VDD_XBlack1_15.XI4.MM0_s
+ N_VDD_XBlack1_3.XI3.MM0_b PMOS_VTG L=5e-08 W=1.8e-07 AD=1.89e-14 AS=1.89e-14
+ PD=5.7e-07 PS=5.7e-07
mXBlack3_15.XI3.MM3 XBLACK3_15.XI3.NET1 N_P11_8_XBlack3_15.XI3.MM3_g
+ N_GND_XBlack3_15.XI3.MM3_s N_GND_XBlack3_15.XI3.MM3_b NMOS_VTG L=5e-08 W=9e-08
+ AD=1.305e-14 AS=9.45e-15 PD=4.7e-07 PS=3.9e-07
mXBlack3_15.XI3.MM2 N_XBLACK3_15.XI3.NET2_XBlack3_15.XI3.MM2_d
+ N_P15_12_XBlack3_15.XI3.MM2_g XBLACK3_15.XI3.NET1 N_GND_XBlack3_15.XI3.MM3_b
+ NMOS_VTG L=5e-08 W=9e-08 AD=9.45e-15 AS=1.305e-14 PD=3.9e-07 PS=4.7e-07
mXBlack3_15.XI3.MM5 N_P15_8_XBlack3_15.XI3.MM5_d
+ N_XBLACK3_15.XI3.NET2_XBlack3_15.XI3.MM5_g N_GND_XBlack3_15.XI3.MM5_s
+ N_GND_XBlack3_15.XI3.MM3_b NMOS_VTG L=5e-08 W=9e-08 AD=9.45e-15 AS=9.45e-15
+ PD=3.9e-07 PS=3.9e-07
mXBlack3_15.XI0.MM4 XBLACK3_15.XI0.NET13 N_P15_12_XBlack3_15.XI0.MM4_g
+ N_GND_XBlack3_15.XI0.MM4_s N_GND_XBlack3_15.XI3.MM3_b NMOS_VTG L=5e-08 W=9e-08
+ AD=1.7775e-14 AS=1.1475e-14 PD=5.75e-07 PS=4.35e-07
mXBlack3_15.XI0.MM3 N_XBLACK3_15.NET4_XBlack3_15.XI0.MM3_d
+ N_G11_8_XBlack3_15.XI0.MM3_g XBLACK3_15.XI0.NET13 N_GND_XBlack3_15.XI3.MM3_b
+ NMOS_VTG L=5e-08 W=9e-08 AD=2.3175e-14 AS=1.7775e-14 PD=6.95e-07 PS=5.75e-07
mXBlack3_15.XI0.MM5 N_GND_XBlack3_15.XI0.MM5_d N_G15_12_XBlack3_15.XI0.MM5_g
+ N_XBLACK3_15.NET4_XBlack3_15.XI0.MM3_d N_GND_XBlack3_15.XI3.MM3_b NMOS_VTG
+ L=5e-08 W=9e-08 AD=1.575e-14 AS=2.3175e-14 PD=5.3e-07 PS=6.95e-07
mXBlack3_15.XI4.MM1 N_G15_8_XBlack3_15.XI4.MM1_d
+ N_XBLACK3_15.NET4_XBlack3_15.XI4.MM1_g N_GND_XBlack3_15.XI4.MM1_s
+ N_GND_XBlack3_15.XI3.MM3_b NMOS_VTG L=5e-08 W=9e-08 AD=9.45e-15 AS=9.45e-15
+ PD=3.9e-07 PS=3.9e-07
mXBlack3_15.XI3.MM0 N_XBLACK3_15.XI3.NET2_XBlack3_15.XI3.MM0_d
+ N_P11_8_XBlack3_15.XI3.MM0_g N_VDD_XBlack3_15.XI3.MM0_s
+ N_VDD_XBlack3_15.XI3.MM0_b PMOS_VTG L=5e-08 W=1.8e-07 AD=2.61e-14 AS=1.89e-14
+ PD=6.5e-07 PS=5.7e-07
mXBlack3_15.XI3.MM1 N_XBLACK3_15.XI3.NET2_XBlack3_15.XI3.MM0_d
+ N_P15_12_XBlack3_15.XI3.MM1_g N_VDD_XBlack3_15.XI3.MM1_s
+ N_VDD_XBlack3_15.XI3.MM0_b PMOS_VTG L=5e-08 W=1.8e-07 AD=2.61e-14 AS=1.89e-14
+ PD=6.5e-07 PS=5.7e-07
mXBlack3_15.XI3.MM4 N_P15_8_XBlack3_15.XI3.MM4_d
+ N_XBLACK3_15.XI3.NET2_XBlack3_15.XI3.MM4_g N_VDD_XBlack3_15.XI3.MM4_s
+ N_VDD_XBlack3_15.XI3.MM0_b PMOS_VTG L=5e-08 W=1.8e-07 AD=1.89e-14 AS=1.89e-14
+ PD=5.7e-07 PS=5.7e-07
mXBlack3_15.XI0.MM1 N_VDD_XBlack3_15.XI0.MM1_d N_P15_12_XBlack3_15.XI0.MM1_g
+ N_XBLACK3_15.XI0.NET1_XBlack3_15.XI0.MM1_s N_VDD_XBlack3_15.XI3.MM0_b PMOS_VTG
+ L=5e-08 W=1.8e-07 AD=3.555e-14 AS=2.25e-14 PD=7.55e-07 PS=6.1e-07
mXBlack3_15.XI0.MM0 N_XBLACK3_15.XI0.NET1_XBlack3_15.XI0.MM0_d
+ N_G11_8_XBlack3_15.XI0.MM0_g N_VDD_XBlack3_15.XI0.MM1_d
+ N_VDD_XBlack3_15.XI3.MM0_b PMOS_VTG L=5e-08 W=1.8e-07 AD=4.635e-14
+ AS=3.555e-14 PD=8.75e-07 PS=7.55e-07
mXBlack3_15.XI0.MM2 N_XBLACK3_15.XI0.NET1_XBlack3_15.XI0.MM0_d
+ N_G15_12_XBlack3_15.XI0.MM2_g N_XBLACK3_15.NET4_XBlack3_15.XI0.MM2_s
+ N_VDD_XBlack3_15.XI3.MM0_b PMOS_VTG L=5e-08 W=1.8e-07 AD=4.635e-14 AS=3.06e-14
+ PD=8.75e-07 PS=7e-07
mXBlack3_15.XI4.MM0 N_G15_8_XBlack3_15.XI4.MM0_d
+ N_XBLACK3_15.NET4_XBlack3_15.XI4.MM0_g N_VDD_XBlack3_15.XI4.MM0_s
+ N_VDD_XBlack3_15.XI3.MM0_b PMOS_VTG L=5e-08 W=1.8e-07 AD=1.89e-14 AS=1.89e-14
+ PD=5.7e-07 PS=5.7e-07
mXI104.MM1@2 N_XI104.NET8_XI104.MM1@2_d N_NET28_XI104.MM1@2_g
+ N_GND_XI104.MM1@2_s N_GND_XI104.MM1@2_b NMOS_VTG L=5e-08 W=1.8e-07 AD=2.52e-14
+ AS=2.07e-14 PD=6.4e-07 PS=5.9e-07
mXI104.MM1 N_XI104.NET8_XI104.MM1@2_d N_NET28_XI104.MM1_g N_GND_XI104.MM1_s
+ N_GND_XI104.MM1@2_b NMOS_VTG L=5e-08 W=1.8e-07 AD=2.52e-14 AS=3.465e-14
+ PD=6.4e-07 PS=7.45e-07
mXI104.MM3@2 N_S<14>_XI104.MM3@2_d N_XI104.NET8_XI104.MM3@2_g N_GND_XI104.MM1_s
+ N_GND_XI104.MM1@2_b NMOS_VTG L=5e-08 W=1.8e-07 AD=2.52e-14 AS=3.465e-14
+ PD=6.4e-07 PS=7.45e-07
mXI104.MM3@3 N_S<14>_XI104.MM3@2_d N_XI104.NET8_XI104.MM3@3_g
+ N_GND_XI104.MM3@3_s N_GND_XI104.MM1@2_b NMOS_VTG L=5e-08 W=1.8e-07 AD=2.52e-14
+ AS=2.7e-14 PD=6.4e-07 PS=6.6e-07
mXI104.MM3@4 N_S<14>_XI104.MM3@4_d N_XI104.NET8_XI104.MM3@4_g
+ N_GND_XI104.MM3@3_s N_GND_XI104.MM1@2_b NMOS_VTG L=5e-08 W=1.8e-07 AD=2.52e-14
+ AS=2.7e-14 PD=6.4e-07 PS=6.6e-07
mXI104.MM3@5 N_S<14>_XI104.MM3@4_d N_XI104.NET8_XI104.MM3@5_g
+ N_GND_XI104.MM3@5_s N_GND_XI104.MM1@2_b NMOS_VTG L=5e-08 W=1.8e-07 AD=2.52e-14
+ AS=2.88e-14 PD=6.4e-07 PS=6.8e-07
mXI104.MM3@6 N_S<14>_XI104.MM3@6_d N_XI104.NET8_XI104.MM3@6_g
+ N_GND_XI104.MM3@5_s N_GND_XI104.MM1@2_b NMOS_VTG L=5e-08 W=1.8e-07 AD=2.52e-14
+ AS=2.88e-14 PD=6.4e-07 PS=6.8e-07
mXI104.MM3 N_S<14>_XI104.MM3@6_d N_XI104.NET8_XI104.MM3_g N_GND_XI104.MM3_s
+ N_GND_XI104.MM1@2_b NMOS_VTG L=5e-08 W=1.8e-07 AD=2.52e-14 AS=1.89e-14
+ PD=6.4e-07 PS=5.7e-07
mXI104.MM0@2 N_XI104.NET8_XI104.MM0@2_d N_NET28_XI104.MM0@2_g
+ N_VDD_XI104.MM0@2_s N_VDD_XI104.MM0@2_b PMOS_VTG L=5e-08 W=3e-07 AD=4.2e-14
+ AS=3.45e-14 PD=8.8e-07 PS=8.3e-07
mXI104.MM0 N_XI104.NET8_XI104.MM0@2_d N_NET28_XI104.MM0_g N_VDD_XI104.MM0_s
+ N_VDD_XI104.MM0@2_b PMOS_VTG L=5e-08 W=3e-07 AD=4.2e-14 AS=5.775e-14
+ PD=8.8e-07 PS=9.85e-07
mXI104.MM2@2 N_S<14>_XI104.MM2@2_d N_XI104.NET8_XI104.MM2@2_g N_VDD_XI104.MM0_s
+ N_VDD_XI104.MM0@2_b PMOS_VTG L=5e-08 W=3e-07 AD=4.2e-14 AS=5.775e-14
+ PD=8.8e-07 PS=9.85e-07
mXI104.MM2@3 N_S<14>_XI104.MM2@2_d N_XI104.NET8_XI104.MM2@3_g
+ N_VDD_XI104.MM2@3_s N_VDD_XI104.MM0@2_b PMOS_VTG L=5e-08 W=3e-07 AD=4.2e-14
+ AS=4.5e-14 PD=8.8e-07 PS=9e-07
mXI104.MM2@4 N_S<14>_XI104.MM2@4_d N_XI104.NET8_XI104.MM2@4_g
+ N_VDD_XI104.MM2@3_s N_VDD_XI104.MM0@2_b PMOS_VTG L=5e-08 W=3e-07 AD=4.2e-14
+ AS=4.5e-14 PD=8.8e-07 PS=9e-07
mXI104.MM2@5 N_S<14>_XI104.MM2@4_d N_XI104.NET8_XI104.MM2@5_g
+ N_VDD_XI104.MM2@5_s N_VDD_XI104.MM0@2_b PMOS_VTG L=5e-08 W=3e-07 AD=4.2e-14
+ AS=4.8e-14 PD=8.8e-07 PS=9.2e-07
mXI104.MM2@6 N_S<14>_XI104.MM2@6_d N_XI104.NET8_XI104.MM2@6_g
+ N_VDD_XI104.MM2@5_s N_VDD_XI104.MM0@2_b PMOS_VTG L=5e-08 W=3e-07 AD=4.2e-14
+ AS=4.8e-14 PD=8.8e-07 PS=9.2e-07
mXI104.MM2 N_S<14>_XI104.MM2@6_d N_XI104.NET8_XI104.MM2_g N_VDD_XI104.MM2_s
+ N_VDD_XI104.MM0@2_b PMOS_VTG L=5e-08 W=3e-07 AD=4.2e-14 AS=3.15e-14 PD=8.8e-07
+ PS=8.1e-07
mXI105.MM1@2 N_XI105.NET8_XI105.MM1@2_d N_NET31_XI105.MM1@2_g
+ N_GND_XI105.MM1@2_s N_GND_XI104.MM1@2_b NMOS_VTG L=5e-08 W=1.8e-07 AD=2.52e-14
+ AS=2.07e-14 PD=6.4e-07 PS=5.9e-07
mXI105.MM1 N_XI105.NET8_XI105.MM1@2_d N_NET31_XI105.MM1_g N_GND_XI105.MM1_s
+ N_GND_XI104.MM1@2_b NMOS_VTG L=5e-08 W=1.8e-07 AD=2.52e-14 AS=3.465e-14
+ PD=6.4e-07 PS=7.45e-07
mXI105.MM3@2 N_S<15>_XI105.MM3@2_d N_XI105.NET8_XI105.MM3@2_g N_GND_XI105.MM1_s
+ N_GND_XI104.MM1@2_b NMOS_VTG L=5e-08 W=1.8e-07 AD=2.52e-14 AS=3.465e-14
+ PD=6.4e-07 PS=7.45e-07
mXI105.MM3@3 N_S<15>_XI105.MM3@2_d N_XI105.NET8_XI105.MM3@3_g
+ N_GND_XI105.MM3@3_s N_GND_XI104.MM1@2_b NMOS_VTG L=5e-08 W=1.8e-07 AD=2.52e-14
+ AS=2.7e-14 PD=6.4e-07 PS=6.6e-07
mXI105.MM3@4 N_S<15>_XI105.MM3@4_d N_XI105.NET8_XI105.MM3@4_g
+ N_GND_XI105.MM3@3_s N_GND_XI104.MM1@2_b NMOS_VTG L=5e-08 W=1.8e-07 AD=2.52e-14
+ AS=2.7e-14 PD=6.4e-07 PS=6.6e-07
mXI105.MM3@5 N_S<15>_XI105.MM3@4_d N_XI105.NET8_XI105.MM3@5_g
+ N_GND_XI105.MM3@5_s N_GND_XI104.MM1@2_b NMOS_VTG L=5e-08 W=1.8e-07 AD=2.52e-14
+ AS=2.88e-14 PD=6.4e-07 PS=6.8e-07
mXI105.MM3@6 N_S<15>_XI105.MM3@6_d N_XI105.NET8_XI105.MM3@6_g
+ N_GND_XI105.MM3@5_s N_GND_XI104.MM1@2_b NMOS_VTG L=5e-08 W=1.8e-07 AD=2.52e-14
+ AS=2.88e-14 PD=6.4e-07 PS=6.8e-07
mXI105.MM3 N_S<15>_XI105.MM3@6_d N_XI105.NET8_XI105.MM3_g N_GND_XI105.MM3_s
+ N_GND_XI104.MM1@2_b NMOS_VTG L=5e-08 W=1.8e-07 AD=2.52e-14 AS=1.89e-14
+ PD=6.4e-07 PS=5.7e-07
mXI105.MM0@2 N_XI105.NET8_XI105.MM0@2_d N_NET31_XI105.MM0@2_g
+ N_VDD_XI105.MM0@2_s N_VDD_XI104.MM0@2_b PMOS_VTG L=5e-08 W=3e-07 AD=4.2e-14
+ AS=3.45e-14 PD=8.8e-07 PS=8.3e-07
mXI105.MM0 N_XI105.NET8_XI105.MM0@2_d N_NET31_XI105.MM0_g N_VDD_XI105.MM0_s
+ N_VDD_XI104.MM0@2_b PMOS_VTG L=5e-08 W=3e-07 AD=4.2e-14 AS=5.775e-14
+ PD=8.8e-07 PS=9.85e-07
mXI105.MM2@2 N_S<15>_XI105.MM2@2_d N_XI105.NET8_XI105.MM2@2_g N_VDD_XI105.MM0_s
+ N_VDD_XI104.MM0@2_b PMOS_VTG L=5e-08 W=3e-07 AD=4.2e-14 AS=5.775e-14
+ PD=8.8e-07 PS=9.85e-07
mXI105.MM2@3 N_S<15>_XI105.MM2@2_d N_XI105.NET8_XI105.MM2@3_g
+ N_VDD_XI105.MM2@3_s N_VDD_XI104.MM0@2_b PMOS_VTG L=5e-08 W=3e-07 AD=4.2e-14
+ AS=4.5e-14 PD=8.8e-07 PS=9e-07
mXI105.MM2@4 N_S<15>_XI105.MM2@4_d N_XI105.NET8_XI105.MM2@4_g
+ N_VDD_XI105.MM2@3_s N_VDD_XI104.MM0@2_b PMOS_VTG L=5e-08 W=3e-07 AD=4.2e-14
+ AS=4.5e-14 PD=8.8e-07 PS=9e-07
mXI105.MM2@5 N_S<15>_XI105.MM2@4_d N_XI105.NET8_XI105.MM2@5_g
+ N_VDD_XI105.MM2@5_s N_VDD_XI104.MM0@2_b PMOS_VTG L=5e-08 W=3e-07 AD=4.2e-14
+ AS=4.8e-14 PD=8.8e-07 PS=9.2e-07
mXI105.MM2@6 N_S<15>_XI105.MM2@6_d N_XI105.NET8_XI105.MM2@6_g
+ N_VDD_XI105.MM2@5_s N_VDD_XI104.MM0@2_b PMOS_VTG L=5e-08 W=3e-07 AD=4.2e-14
+ AS=4.8e-14 PD=8.8e-07 PS=9.2e-07
mXI105.MM2 N_S<15>_XI105.MM2@6_d N_XI105.NET8_XI105.MM2_g N_VDD_XI105.MM2_s
+ N_VDD_XI104.MM0@2_b PMOS_VTG L=5e-08 W=3e-07 AD=4.2e-14 AS=3.15e-14 PD=8.8e-07
+ PS=8.1e-07
mXI106.MM1@2 N_XI106.NET8_XI106.MM1@2_d N_NET33_XI106.MM1@2_g
+ N_GND_XI106.MM1@2_s N_GND_XI104.MM1@2_b NMOS_VTG L=5e-08 W=1.8e-07 AD=2.52e-14
+ AS=2.07e-14 PD=6.4e-07 PS=5.9e-07
mXI106.MM1 N_XI106.NET8_XI106.MM1@2_d N_NET33_XI106.MM1_g N_GND_XI106.MM1_s
+ N_GND_XI104.MM1@2_b NMOS_VTG L=5e-08 W=1.8e-07 AD=2.52e-14 AS=3.465e-14
+ PD=6.4e-07 PS=7.45e-07
mXI106.MM3@2 N_COUT_XI106.MM3@2_d N_XI106.NET8_XI106.MM3@2_g N_GND_XI106.MM1_s
+ N_GND_XI104.MM1@2_b NMOS_VTG L=5e-08 W=1.8e-07 AD=2.52e-14 AS=3.465e-14
+ PD=6.4e-07 PS=7.45e-07
mXI106.MM3@3 N_COUT_XI106.MM3@2_d N_XI106.NET8_XI106.MM3@3_g N_GND_XI106.MM3@3_s
+ N_GND_XI104.MM1@2_b NMOS_VTG L=5e-08 W=1.8e-07 AD=2.52e-14 AS=2.7e-14
+ PD=6.4e-07 PS=6.6e-07
mXI106.MM3@4 N_COUT_XI106.MM3@4_d N_XI106.NET8_XI106.MM3@4_g N_GND_XI106.MM3@3_s
+ N_GND_XI104.MM1@2_b NMOS_VTG L=5e-08 W=1.8e-07 AD=2.52e-14 AS=2.7e-14
+ PD=6.4e-07 PS=6.6e-07
mXI106.MM3@5 N_COUT_XI106.MM3@4_d N_XI106.NET8_XI106.MM3@5_g N_GND_XI106.MM3@5_s
+ N_GND_XI104.MM1@2_b NMOS_VTG L=5e-08 W=1.8e-07 AD=2.52e-14 AS=2.88e-14
+ PD=6.4e-07 PS=6.8e-07
mXI106.MM3@6 N_COUT_XI106.MM3@6_d N_XI106.NET8_XI106.MM3@6_g N_GND_XI106.MM3@5_s
+ N_GND_XI104.MM1@2_b NMOS_VTG L=5e-08 W=1.8e-07 AD=2.52e-14 AS=2.88e-14
+ PD=6.4e-07 PS=6.8e-07
mXI106.MM3 N_COUT_XI106.MM3@6_d N_XI106.NET8_XI106.MM3_g N_GND_XI106.MM3_s
+ N_GND_XI104.MM1@2_b NMOS_VTG L=5e-08 W=1.8e-07 AD=2.52e-14 AS=1.89e-14
+ PD=6.4e-07 PS=5.7e-07
mXI106.MM0@2 N_XI106.NET8_XI106.MM0@2_d N_NET33_XI106.MM0@2_g
+ N_VDD_XI106.MM0@2_s N_VDD_XI104.MM0@2_b PMOS_VTG L=5e-08 W=3e-07 AD=4.2e-14
+ AS=3.45e-14 PD=8.8e-07 PS=8.3e-07
mXI106.MM0 N_XI106.NET8_XI106.MM0@2_d N_NET33_XI106.MM0_g N_VDD_XI106.MM0_s
+ N_VDD_XI104.MM0@2_b PMOS_VTG L=5e-08 W=3e-07 AD=4.2e-14 AS=5.775e-14
+ PD=8.8e-07 PS=9.85e-07
mXI106.MM2@2 N_COUT_XI106.MM2@2_d N_XI106.NET8_XI106.MM2@2_g N_VDD_XI106.MM0_s
+ N_VDD_XI104.MM0@2_b PMOS_VTG L=5e-08 W=3e-07 AD=4.2e-14 AS=5.775e-14
+ PD=8.8e-07 PS=9.85e-07
mXI106.MM2@3 N_COUT_XI106.MM2@2_d N_XI106.NET8_XI106.MM2@3_g N_VDD_XI106.MM2@3_s
+ N_VDD_XI104.MM0@2_b PMOS_VTG L=5e-08 W=3e-07 AD=4.2e-14 AS=4.5e-14 PD=8.8e-07
+ PS=9e-07
mXI106.MM2@4 N_COUT_XI106.MM2@4_d N_XI106.NET8_XI106.MM2@4_g N_VDD_XI106.MM2@3_s
+ N_VDD_XI104.MM0@2_b PMOS_VTG L=5e-08 W=3e-07 AD=4.2e-14 AS=4.5e-14 PD=8.8e-07
+ PS=9e-07
mXI106.MM2@5 N_COUT_XI106.MM2@4_d N_XI106.NET8_XI106.MM2@5_g N_VDD_XI106.MM2@5_s
+ N_VDD_XI104.MM0@2_b PMOS_VTG L=5e-08 W=3e-07 AD=4.2e-14 AS=4.8e-14 PD=8.8e-07
+ PS=9.2e-07
mXI106.MM2@6 N_COUT_XI106.MM2@6_d N_XI106.NET8_XI106.MM2@6_g N_VDD_XI106.MM2@5_s
+ N_VDD_XI104.MM0@2_b PMOS_VTG L=5e-08 W=3e-07 AD=4.2e-14 AS=4.8e-14 PD=8.8e-07
+ PS=9.2e-07
mXI106.MM2 N_COUT_XI106.MM2@6_d N_XI106.NET8_XI106.MM2_g N_VDD_XI106.MM2_s
+ N_VDD_XI104.MM0@2_b PMOS_VTG L=5e-08 W=3e-07 AD=4.2e-14 AS=3.15e-14 PD=8.8e-07
+ PS=8.1e-07
mXGrey3_4.XI0.MM4 XGREY3_4.XI0.NET13 N_P4_4_XGrey3_4.XI0.MM4_g
+ N_GND_XGrey3_4.XI0.MM4_s N_GND_XBlack1_3.XI3.MM3_b NMOS_VTG L=5e-08 W=9e-08
+ AD=1.7775e-14 AS=1.08e-14 PD=5.75e-07 PS=4.2e-07
mXGrey3_4.XI0.MM3 N_XGREY3_4.NET4_XGrey3_4.XI0.MM3_d N_G3_0_XGrey3_4.XI0.MM3_g
+ XGREY3_4.XI0.NET13 N_GND_XBlack1_3.XI3.MM3_b NMOS_VTG L=5e-08 W=9e-08
+ AD=2.3175e-14 AS=1.7775e-14 PD=6.95e-07 PS=5.75e-07
mXGrey3_4.XI0.MM5 N_GND_XGrey3_4.XI0.MM5_d N_G4_4_XGrey3_4.XI0.MM5_g
+ N_XGREY3_4.NET4_XGrey3_4.XI0.MM3_d N_GND_XBlack1_3.XI3.MM3_b NMOS_VTG L=5e-08
+ W=9e-08 AD=9.9e-15 AS=2.3175e-14 PD=4e-07 PS=6.95e-07
mXGrey3_4.XI1.MM1 N_G4_0_XGrey3_4.XI1.MM1_d N_XGREY3_4.NET4_XGrey3_4.XI1.MM1_g
+ N_GND_XGrey3_4.XI1.MM1_s N_GND_XBlack1_3.XI3.MM3_b NMOS_VTG L=5e-08 W=9e-08
+ AD=9.45e-15 AS=9.45e-15 PD=3.9e-07 PS=3.9e-07
mXGrey3_4.XI0.MM1 N_VDD_XGrey3_4.XI0.MM1_d N_P4_4_XGrey3_4.XI0.MM1_g
+ N_XGREY3_4.XI0.NET1_XGrey3_4.XI0.MM1_s N_VDD_XBlack1_3.XI3.MM0_b PMOS_VTG
+ L=5e-08 W=1.8e-07 AD=3.555e-14 AS=2.16e-14 PD=7.55e-07 PS=6e-07
mXGrey3_4.XI0.MM0 N_XGREY3_4.XI0.NET1_XGrey3_4.XI0.MM0_d
+ N_G3_0_XGrey3_4.XI0.MM0_g N_VDD_XGrey3_4.XI0.MM1_d N_VDD_XBlack1_3.XI3.MM0_b
+ PMOS_VTG L=5e-08 W=1.8e-07 AD=4.635e-14 AS=3.555e-14 PD=8.75e-07 PS=7.55e-07
mXGrey3_4.XI0.MM2 N_XGREY3_4.XI0.NET1_XGrey3_4.XI0.MM0_d
+ N_G4_4_XGrey3_4.XI0.MM2_g N_XGREY3_4.NET4_XGrey3_4.XI0.MM2_s
+ N_VDD_XBlack1_3.XI3.MM0_b PMOS_VTG L=5e-08 W=1.8e-07 AD=4.635e-14 AS=2.565e-14
+ PD=8.75e-07 PS=6.45e-07
mXGrey3_4.XI1.MM0 N_G4_0_XGrey3_4.XI1.MM0_d N_XGREY3_4.NET4_XGrey3_4.XI1.MM0_g
+ N_VDD_XGrey3_4.XI1.MM0_s N_VDD_XBlack1_3.XI3.MM0_b PMOS_VTG L=5e-08 W=1.8e-07
+ AD=1.89e-14 AS=1.89e-14 PD=5.7e-07 PS=5.7e-07
mXCO.XI0.MM4 XCO.XI0.NET13 N_P16_16_XCO.XI0.MM4_g N_GND_XCO.XI0.MM4_s
+ N_GND_XBlack1_3.XI3.MM3_b NMOS_VTG L=5e-08 W=9e-08 AD=1.7775e-14 AS=1.08e-14
+ PD=5.75e-07 PS=4.2e-07
mXCO.XI0.MM3 N_XCO.NET4_XCO.XI0.MM3_d N_G15_0_XCO.XI0.MM3_g XCO.XI0.NET13
+ N_GND_XBlack1_3.XI3.MM3_b NMOS_VTG L=5e-08 W=9e-08 AD=2.3175e-14 AS=1.7775e-14
+ PD=6.95e-07 PS=5.75e-07
mXCO.XI0.MM5 N_GND_XCO.XI0.MM5_d N_G16_16_XCO.XI0.MM5_g N_XCO.NET4_XCO.XI0.MM3_d
+ N_GND_XBlack1_3.XI3.MM3_b NMOS_VTG L=5e-08 W=9e-08 AD=9.9e-15 AS=2.3175e-14
+ PD=4e-07 PS=6.95e-07
mXCO.XI1.MM1 N_NET33_XCO.XI1.MM1_d N_XCO.NET4_XCO.XI1.MM1_g N_GND_XCO.XI1.MM1_s
+ N_GND_XBlack1_3.XI3.MM3_b NMOS_VTG L=5e-08 W=9e-08 AD=9.45e-15 AS=9.45e-15
+ PD=3.9e-07 PS=3.9e-07
mXCO.XI0.MM1 N_VDD_XCO.XI0.MM1_d N_P16_16_XCO.XI0.MM1_g
+ N_XCO.XI0.NET1_XCO.XI0.MM1_s N_VDD_XBlack1_3.XI3.MM0_b PMOS_VTG L=5e-08
+ W=1.8e-07 AD=3.555e-14 AS=2.16e-14 PD=7.55e-07 PS=6e-07
mXCO.XI0.MM0 N_XCO.XI0.NET1_XCO.XI0.MM0_d N_G15_0_XCO.XI0.MM0_g
+ N_VDD_XCO.XI0.MM1_d N_VDD_XBlack1_3.XI3.MM0_b PMOS_VTG L=5e-08 W=1.8e-07
+ AD=4.635e-14 AS=3.555e-14 PD=8.75e-07 PS=7.55e-07
mXCO.XI0.MM2 N_XCO.XI0.NET1_XCO.XI0.MM0_d N_G16_16_XCO.XI0.MM2_g
+ N_XCO.NET4_XCO.XI0.MM2_s N_VDD_XBlack1_3.XI3.MM0_b PMOS_VTG L=5e-08 W=1.8e-07
+ AD=4.635e-14 AS=2.565e-14 PD=8.75e-07 PS=6.45e-07
mXCO.XI1.MM0 N_NET33_XCO.XI1.MM0_d N_XCO.NET4_XCO.XI1.MM0_g N_VDD_XCO.XI1.MM0_s
+ N_VDD_XBlack1_3.XI3.MM0_b PMOS_VTG L=5e-08 W=1.8e-07 AD=1.89e-14 AS=1.89e-14
+ PD=5.7e-07 PS=5.7e-07
mXGP00.XI0.MM3 XGP00.XI0.NET1 N_B<0>_XGP00.XI0.MM3_g N_GND_XGP00.XI0.MM3_s
+ N_GND_XGP00.XI0.MM3_b NMOS_VTG L=5e-08 W=9e-08 AD=1.305e-14 AS=9.45e-15
+ PD=4.7e-07 PS=3.9e-07
mXGP00.XI0.MM2 N_XGP00.XI0.NET2_XGP00.XI0.MM2_d N_A<0>_XGP00.XI0.MM2_g
+ XGP00.XI0.NET1 N_GND_XGP00.XI0.MM3_b NMOS_VTG L=5e-08 W=9e-08 AD=9.45e-15
+ AS=1.305e-14 PD=3.9e-07 PS=4.7e-07
mXGP00.XI0.MM5 N_G1_1_XGP00.XI0.MM5_d N_XGP00.XI0.NET2_XGP00.XI0.MM5_g
+ N_GND_XGP00.XI0.MM5_s N_GND_XGP00.XI0.MM3_b NMOS_VTG L=5e-08 W=9e-08
+ AD=9.45e-15 AS=9.45e-15 PD=3.9e-07 PS=3.9e-07
mXGP00.XI4.MM0 N_XGP00.XI4.BBAR_XGP00.XI4.MM0_d N_B<0>_XGP00.XI4.MM0_g
+ N_GND_XGP00.XI4.MM0_s N_GND_XGP00.XI0.MM3_b NMOS_VTG L=5e-08 W=9e-08
+ AD=9.45e-15 AS=9.45e-15 PD=3.9e-07 PS=3.9e-07
mXGP00.XI4.MM6 N_XGP00.XI4.Z_XGP00.XI4.MM6_d N_A<0>_XGP00.XI4.MM6_g
+ N_B<0>_XGP00.XI4.MM6_s N_GND_XGP00.XI0.MM3_b NMOS_VTG L=5e-08 W=9e-08
+ AD=1.26e-14 AS=9.45e-15 PD=4.6e-07 PS=3.9e-07
mXGP00.XI4.MM5 N_XGP00.XI4.Z_XGP00.XI4.MM6_d N_B<0>_XGP00.XI4.MM5_g
+ N_A<0>_XGP00.XI4.MM5_s N_GND_XGP00.XI0.MM3_b NMOS_VTG L=5e-08 W=9e-08
+ AD=1.26e-14 AS=9.45e-15 PD=4.6e-07 PS=3.9e-07
mXGP00.XI4.MM2 N_P1_1_XGP00.XI4.MM2_d N_XGP00.XI4.Z_XGP00.XI4.MM2_g
+ N_GND_XGP00.XI4.MM2_s N_GND_XGP00.XI0.MM3_b NMOS_VTG L=5e-08 W=9e-08
+ AD=9.45e-15 AS=9.45e-15 PD=3.9e-07 PS=3.9e-07
mXGP00.XI0.MM0 N_XGP00.XI0.NET2_XGP00.XI0.MM0_d N_B<0>_XGP00.XI0.MM0_g
+ N_VDD_XGP00.XI0.MM0_s N_VDD_XGP00.XI0.MM0_b PMOS_VTG L=5e-08 W=1.8e-07
+ AD=2.61e-14 AS=1.89e-14 PD=6.5e-07 PS=5.7e-07
mXGP00.XI0.MM1 N_XGP00.XI0.NET2_XGP00.XI0.MM0_d N_A<0>_XGP00.XI0.MM1_g
+ N_VDD_XGP00.XI0.MM1_s N_VDD_XGP00.XI0.MM0_b PMOS_VTG L=5e-08 W=1.8e-07
+ AD=2.61e-14 AS=1.89e-14 PD=6.5e-07 PS=5.7e-07
mXGP00.XI0.MM4 N_G1_1_XGP00.XI0.MM4_d N_XGP00.XI0.NET2_XGP00.XI0.MM4_g
+ N_VDD_XGP00.XI0.MM4_s N_VDD_XGP00.XI0.MM0_b PMOS_VTG L=5e-08 W=1.8e-07
+ AD=1.89e-14 AS=1.89e-14 PD=5.7e-07 PS=5.7e-07
mXGP00.XI4.MM1 N_XGP00.XI4.BBAR_XGP00.XI4.MM1_d N_B<0>_XGP00.XI4.MM1_g
+ N_VDD_XGP00.XI4.MM1_s N_VDD_XGP00.XI0.MM0_b PMOS_VTG L=5e-08 W=1.8e-07
+ AD=1.89e-14 AS=1.89e-14 PD=5.7e-07 PS=5.7e-07
mXGP00.XI4.MM3 N_XGP00.XI4.Z_XGP00.XI4.MM3_d N_A<0>_XGP00.XI4.MM3_g
+ N_XGP00.XI4.BBAR_XGP00.XI4.MM3_s N_VDD_XGP00.XI0.MM0_b PMOS_VTG L=5e-08
+ W=1.8e-07 AD=2.52e-14 AS=1.89e-14 PD=6.4e-07 PS=5.7e-07
mXGP00.XI4.MM4 N_XGP00.XI4.Z_XGP00.XI4.MM3_d N_XGP00.XI4.BBAR_XGP00.XI4.MM4_g
+ N_A<0>_XGP00.XI4.MM4_s N_VDD_XGP00.XI0.MM0_b PMOS_VTG L=5e-08 W=1.8e-07
+ AD=2.52e-14 AS=1.89e-14 PD=6.4e-07 PS=5.7e-07
mXGP00.XI4.MM7 N_P1_1_XGP00.XI4.MM7_d N_XGP00.XI4.Z_XGP00.XI4.MM7_g
+ N_VDD_XGP00.XI4.MM7_s N_VDD_XGP00.XI0.MM0_b PMOS_VTG L=5e-08 W=1.8e-07
+ AD=1.89e-14 AS=1.89e-14 PD=5.7e-07 PS=5.7e-07
mXGP01.XI0.MM3 XGP01.XI0.NET1 N_B<1>_XGP01.XI0.MM3_g N_GND_XGP01.XI0.MM3_s
+ N_GND_XGP00.XI0.MM3_b NMOS_VTG L=5e-08 W=9e-08 AD=1.305e-14 AS=9.45e-15
+ PD=4.7e-07 PS=3.9e-07
mXGP01.XI0.MM2 N_XGP01.XI0.NET2_XGP01.XI0.MM2_d N_A<1>_XGP01.XI0.MM2_g
+ XGP01.XI0.NET1 N_GND_XGP00.XI0.MM3_b NMOS_VTG L=5e-08 W=9e-08 AD=9.45e-15
+ AS=1.305e-14 PD=3.9e-07 PS=4.7e-07
mXGP01.XI0.MM5 N_G2_2_XGP01.XI0.MM5_d N_XGP01.XI0.NET2_XGP01.XI0.MM5_g
+ N_GND_XGP01.XI0.MM5_s N_GND_XGP00.XI0.MM3_b NMOS_VTG L=5e-08 W=9e-08
+ AD=9.45e-15 AS=9.45e-15 PD=3.9e-07 PS=3.9e-07
mXGP01.XI4.MM0 N_XGP01.XI4.BBAR_XGP01.XI4.MM0_d N_B<1>_XGP01.XI4.MM0_g
+ N_GND_XGP01.XI4.MM0_s N_GND_XGP00.XI0.MM3_b NMOS_VTG L=5e-08 W=9e-08
+ AD=9.45e-15 AS=9.45e-15 PD=3.9e-07 PS=3.9e-07
mXGP01.XI4.MM6 N_XGP01.XI4.Z_XGP01.XI4.MM6_d N_A<1>_XGP01.XI4.MM6_g
+ N_B<1>_XGP01.XI4.MM6_s N_GND_XGP00.XI0.MM3_b NMOS_VTG L=5e-08 W=9e-08
+ AD=1.26e-14 AS=9.45e-15 PD=4.6e-07 PS=3.9e-07
mXGP01.XI4.MM5 N_XGP01.XI4.Z_XGP01.XI4.MM6_d N_B<1>_XGP01.XI4.MM5_g
+ N_A<1>_XGP01.XI4.MM5_s N_GND_XGP00.XI0.MM3_b NMOS_VTG L=5e-08 W=9e-08
+ AD=1.26e-14 AS=9.45e-15 PD=4.6e-07 PS=3.9e-07
mXGP01.XI4.MM2 N_P2_2_XGP01.XI4.MM2_d N_XGP01.XI4.Z_XGP01.XI4.MM2_g
+ N_GND_XGP01.XI4.MM2_s N_GND_XGP00.XI0.MM3_b NMOS_VTG L=5e-08 W=9e-08
+ AD=9.45e-15 AS=9.45e-15 PD=3.9e-07 PS=3.9e-07
mXGP01.XI0.MM0 N_XGP01.XI0.NET2_XGP01.XI0.MM0_d N_B<1>_XGP01.XI0.MM0_g
+ N_VDD_XGP01.XI0.MM0_s N_VDD_XGP00.XI0.MM0_b PMOS_VTG L=5e-08 W=1.8e-07
+ AD=2.61e-14 AS=1.89e-14 PD=6.5e-07 PS=5.7e-07
mXGP01.XI0.MM1 N_XGP01.XI0.NET2_XGP01.XI0.MM0_d N_A<1>_XGP01.XI0.MM1_g
+ N_VDD_XGP01.XI0.MM1_s N_VDD_XGP00.XI0.MM0_b PMOS_VTG L=5e-08 W=1.8e-07
+ AD=2.61e-14 AS=1.89e-14 PD=6.5e-07 PS=5.7e-07
mXGP01.XI0.MM4 N_G2_2_XGP01.XI0.MM4_d N_XGP01.XI0.NET2_XGP01.XI0.MM4_g
+ N_VDD_XGP01.XI0.MM4_s N_VDD_XGP00.XI0.MM0_b PMOS_VTG L=5e-08 W=1.8e-07
+ AD=1.89e-14 AS=1.89e-14 PD=5.7e-07 PS=5.7e-07
mXGP01.XI4.MM1 N_XGP01.XI4.BBAR_XGP01.XI4.MM1_d N_B<1>_XGP01.XI4.MM1_g
+ N_VDD_XGP01.XI4.MM1_s N_VDD_XGP00.XI0.MM0_b PMOS_VTG L=5e-08 W=1.8e-07
+ AD=1.89e-14 AS=1.89e-14 PD=5.7e-07 PS=5.7e-07
mXGP01.XI4.MM3 N_XGP01.XI4.Z_XGP01.XI4.MM3_d N_A<1>_XGP01.XI4.MM3_g
+ N_XGP01.XI4.BBAR_XGP01.XI4.MM3_s N_VDD_XGP00.XI0.MM0_b PMOS_VTG L=5e-08
+ W=1.8e-07 AD=2.52e-14 AS=1.89e-14 PD=6.4e-07 PS=5.7e-07
mXGP01.XI4.MM4 N_XGP01.XI4.Z_XGP01.XI4.MM3_d N_XGP01.XI4.BBAR_XGP01.XI4.MM4_g
+ N_A<1>_XGP01.XI4.MM4_s N_VDD_XGP00.XI0.MM0_b PMOS_VTG L=5e-08 W=1.8e-07
+ AD=2.52e-14 AS=1.89e-14 PD=6.4e-07 PS=5.7e-07
mXGP01.XI4.MM7 N_P2_2_XGP01.XI4.MM7_d N_XGP01.XI4.Z_XGP01.XI4.MM7_g
+ N_VDD_XGP01.XI4.MM7_s N_VDD_XGP00.XI0.MM0_b PMOS_VTG L=5e-08 W=1.8e-07
+ AD=1.89e-14 AS=1.89e-14 PD=5.7e-07 PS=5.7e-07
mXGP02.XI0.MM3 XGP02.XI0.NET1 N_B<2>_XGP02.XI0.MM3_g N_GND_XGP02.XI0.MM3_s
+ N_GND_XGP00.XI0.MM3_b NMOS_VTG L=5e-08 W=9e-08 AD=1.305e-14 AS=9.45e-15
+ PD=4.7e-07 PS=3.9e-07
mXGP02.XI0.MM2 N_XGP02.XI0.NET2_XGP02.XI0.MM2_d N_A<2>_XGP02.XI0.MM2_g
+ XGP02.XI0.NET1 N_GND_XGP00.XI0.MM3_b NMOS_VTG L=5e-08 W=9e-08 AD=9.45e-15
+ AS=1.305e-14 PD=3.9e-07 PS=4.7e-07
mXGP02.XI0.MM5 N_G3_3_XGP02.XI0.MM5_d N_XGP02.XI0.NET2_XGP02.XI0.MM5_g
+ N_GND_XGP02.XI0.MM5_s N_GND_XGP00.XI0.MM3_b NMOS_VTG L=5e-08 W=9e-08
+ AD=9.45e-15 AS=9.45e-15 PD=3.9e-07 PS=3.9e-07
mXGP02.XI4.MM0 N_XGP02.XI4.BBAR_XGP02.XI4.MM0_d N_B<2>_XGP02.XI4.MM0_g
+ N_GND_XGP02.XI4.MM0_s N_GND_XGP00.XI0.MM3_b NMOS_VTG L=5e-08 W=9e-08
+ AD=9.45e-15 AS=9.45e-15 PD=3.9e-07 PS=3.9e-07
mXGP02.XI4.MM6 N_XGP02.XI4.Z_XGP02.XI4.MM6_d N_A<2>_XGP02.XI4.MM6_g
+ N_B<2>_XGP02.XI4.MM6_s N_GND_XGP00.XI0.MM3_b NMOS_VTG L=5e-08 W=9e-08
+ AD=1.26e-14 AS=9.45e-15 PD=4.6e-07 PS=3.9e-07
mXGP02.XI4.MM5 N_XGP02.XI4.Z_XGP02.XI4.MM6_d N_B<2>_XGP02.XI4.MM5_g
+ N_A<2>_XGP02.XI4.MM5_s N_GND_XGP00.XI0.MM3_b NMOS_VTG L=5e-08 W=9e-08
+ AD=1.26e-14 AS=9.45e-15 PD=4.6e-07 PS=3.9e-07
mXGP02.XI4.MM2 N_P3_3_XGP02.XI4.MM2_d N_XGP02.XI4.Z_XGP02.XI4.MM2_g
+ N_GND_XGP02.XI4.MM2_s N_GND_XGP00.XI0.MM3_b NMOS_VTG L=5e-08 W=9e-08
+ AD=9.45e-15 AS=9.45e-15 PD=3.9e-07 PS=3.9e-07
mXGP02.XI0.MM0 N_XGP02.XI0.NET2_XGP02.XI0.MM0_d N_B<2>_XGP02.XI0.MM0_g
+ N_VDD_XGP02.XI0.MM0_s N_VDD_XGP00.XI0.MM0_b PMOS_VTG L=5e-08 W=1.8e-07
+ AD=2.61e-14 AS=1.89e-14 PD=6.5e-07 PS=5.7e-07
mXGP02.XI0.MM1 N_XGP02.XI0.NET2_XGP02.XI0.MM0_d N_A<2>_XGP02.XI0.MM1_g
+ N_VDD_XGP02.XI0.MM1_s N_VDD_XGP00.XI0.MM0_b PMOS_VTG L=5e-08 W=1.8e-07
+ AD=2.61e-14 AS=1.89e-14 PD=6.5e-07 PS=5.7e-07
mXGP02.XI0.MM4 N_G3_3_XGP02.XI0.MM4_d N_XGP02.XI0.NET2_XGP02.XI0.MM4_g
+ N_VDD_XGP02.XI0.MM4_s N_VDD_XGP00.XI0.MM0_b PMOS_VTG L=5e-08 W=1.8e-07
+ AD=1.89e-14 AS=1.89e-14 PD=5.7e-07 PS=5.7e-07
mXGP02.XI4.MM1 N_XGP02.XI4.BBAR_XGP02.XI4.MM1_d N_B<2>_XGP02.XI4.MM1_g
+ N_VDD_XGP02.XI4.MM1_s N_VDD_XGP00.XI0.MM0_b PMOS_VTG L=5e-08 W=1.8e-07
+ AD=1.89e-14 AS=1.89e-14 PD=5.7e-07 PS=5.7e-07
mXGP02.XI4.MM3 N_XGP02.XI4.Z_XGP02.XI4.MM3_d N_A<2>_XGP02.XI4.MM3_g
+ N_XGP02.XI4.BBAR_XGP02.XI4.MM3_s N_VDD_XGP00.XI0.MM0_b PMOS_VTG L=5e-08
+ W=1.8e-07 AD=2.52e-14 AS=1.89e-14 PD=6.4e-07 PS=5.7e-07
mXGP02.XI4.MM4 N_XGP02.XI4.Z_XGP02.XI4.MM3_d N_XGP02.XI4.BBAR_XGP02.XI4.MM4_g
+ N_A<2>_XGP02.XI4.MM4_s N_VDD_XGP00.XI0.MM0_b PMOS_VTG L=5e-08 W=1.8e-07
+ AD=2.52e-14 AS=1.89e-14 PD=6.4e-07 PS=5.7e-07
mXGP02.XI4.MM7 N_P3_3_XGP02.XI4.MM7_d N_XGP02.XI4.Z_XGP02.XI4.MM7_g
+ N_VDD_XGP02.XI4.MM7_s N_VDD_XGP00.XI0.MM0_b PMOS_VTG L=5e-08 W=1.8e-07
+ AD=1.89e-14 AS=1.89e-14 PD=5.7e-07 PS=5.7e-07
mXGP03.XI0.MM3 XGP03.XI0.NET1 N_B<3>_XGP03.XI0.MM3_g N_GND_XGP03.XI0.MM3_s
+ N_GND_XGP00.XI0.MM3_b NMOS_VTG L=5e-08 W=9e-08 AD=1.305e-14 AS=9.45e-15
+ PD=4.7e-07 PS=3.9e-07